REMARK  6 active torsions:
REMARK  status: ('A' for Active; 'I' for Inactive)
REMARK    1  A    between atoms: O_2  and  C_25 
REMARK    2  A    between atoms: O_3  and  C_29 
REMARK       I    between atoms: N_4  and  C_13 
REMARK    3  A    between atoms: C_13  and  C_14 
REMARK    4  A    between atoms: C_14  and  C_15 
REMARK    5  A    between atoms: C_15  and  C_16 
REMARK    6  A    between atoms: C_22  and  C_24 
ROOT
HETATM    1  N   UNK     0       0.749  -0.743  -0.351  0.00  0.00    -0.219 N 
HETATM    2  N   UNK     0       0.085  -2.624   0.982  0.00  0.00    -0.234 NA
HETATM    3  N   UNK     0       1.866  -0.012  -0.631  0.00  0.00    -0.165 NA
HETATM    4  C   UNK     0      -1.538  -1.391  -0.475  0.00  0.00    -0.009 A 
HETATM    5  C   UNK     0      -0.549  -0.555  -0.863  0.00  0.00     0.043 A 
HETATM    6  C   UNK     0      -1.117  -2.455   0.516  0.00  0.00     0.041 A 
HETATM    7  C   UNK     0       1.039  -1.764   0.549  0.00  0.00     0.153 A 
HETATM    8  C   UNK     0      -0.724   0.595  -1.820  0.00  0.00     0.071 C 
HETATM    9  C   UNK     0       2.381  -1.669   0.838  0.00  0.00     0.086 A 
HETATM   10  C   UNK     0       2.833  -0.579   0.087  0.00  0.00     0.094 A 
HETATM   11  C   UNK     0      -2.172  -3.420   1.017  0.00  0.00     0.071 C 
ENDROOT
BRANCH   4  12
HETATM   12  C   UNK     0      -2.965  -1.373  -0.933  0.00  0.00     0.052 C 
BRANCH  12  13
HETATM   13  C   UNK     0      -3.841  -0.490  -0.058  0.00  0.00     0.108 C 
BRANCH  13  14
HETATM   14  C   UNK     0      -5.261  -0.463  -0.564  0.00  0.00     0.220 C 
HETATM   15  O   UNK     0      -5.555  -1.112  -1.571  0.00  0.00    -0.273 OA
HETATM   16  N   UNK     0      -6.167   0.316   0.156  0.00  0.00    -0.352 N 
HETATM   17  C   UNK     0      -5.858   1.063   1.382  0.00  0.00     0.125 C 
HETATM   18  C   UNK     0      -7.564   0.395  -0.275  0.00  0.00     0.125 C 
HETATM   19  C   UNK     0      -6.262   2.529   1.239  0.00  0.00     0.020 C 
HETATM   20  C   UNK     0      -7.722   2.663   0.811  0.00  0.00     0.003 C 
HETATM   21  C   UNK     0      -7.999   1.847  -0.450  0.00  0.00     0.020 C 
ENDBRANCH  13  14
ENDBRANCH  12  13
ENDBRANCH   4  12
BRANCH  10  22
HETATM   22  C   UNK     0       4.176  -0.064   0.040  0.00  0.00     0.028 A 
HETATM   23  C   UNK     0       4.415   1.289  -0.196  0.00  0.00     0.083 A 
HETATM   24  C   UNK     0       5.724   1.769  -0.237  0.00  0.00     0.074 A 
HETATM   25  C   UNK     0       6.793   0.895  -0.042  0.00  0.00     0.070 A 
HETATM   26  C   UNK     0       6.554  -0.459   0.194  0.00  0.00     0.038 A 
HETATM   27  C   UNK     0       5.245  -0.938   0.235  0.00  0.00     0.019 A 
BRANCH  23  28
HETATM   28  O   UNK     0       3.389   2.166  -0.390  0.00  0.00    -0.355 OA
HETATM   29  C   UNK     0       2.859   2.808   0.768  0.00  0.00     0.210 C 
ENDBRANCH  23  28
BRANCH  25  30
HETATM   30  O   UNK     0       8.071   1.363  -0.082  0.00  0.00    -0.356 OA
HETATM   31  C   UNK     0       9.116   0.414   0.125  0.00  0.00     0.210 C 
ENDBRANCH  25  30
ENDBRANCH  10  22
TORSDOF 6
