REMARK  4 active torsions:
REMARK  status: ('A' for Active; 'I' for Inactive)
REMARK    1  A    between atoms: O_1  and  C_9 
REMARK    2  A    between atoms: O_2  and  C_19 
REMARK    3  A    between atoms: C_7  and  C_13 
REMARK    4  A    between atoms: C_13  and  C_19 
ROOT
HETATM    1  N   UNK     0      -0.251  -0.053   0.234  0.00  0.00    -0.288 N 
HETATM    2  N   UNK     0      -2.368   1.739  -0.222  0.00  0.00    -0.249 NA
HETATM    3  C   UNK     0      -0.047   1.309   0.166  0.00  0.00     0.067 A 
HETATM    4  C   UNK     0       1.924   0.286   0.544  0.00  0.00     0.005 A 
HETATM    5  C   UNK     0      -1.544  -0.589   0.074  0.00  0.00     0.070 A 
HETATM    6  C   UNK     0       0.946  -0.683   0.464  0.00  0.00     0.154 A 
HETATM    7  C   UNK     0       1.300   1.542   0.356  0.00  0.00     0.044 A 
HETATM    8  C   UNK     0      -1.160   2.198  -0.070  0.00  0.00     0.058 A 
HETATM    9  C   UNK     0      -2.583   0.340  -0.153  0.00  0.00     0.084 A 
HETATM   10  C   UNK     0      -1.792  -1.961   0.135  0.00  0.00     0.032 A 
HETATM   11  C   UNK     0      -0.919   3.680  -0.141  0.00  0.00     0.073 C 
HETATM   12  C   UNK     0      -3.883  -0.148  -0.317  0.00  0.00     0.034 A 
HETATM   13  C   UNK     0      -3.098  -2.421  -0.032  0.00  0.00     0.002 A 
HETATM   14  C   UNK     0      -4.139  -1.519  -0.257  0.00  0.00     0.002 A 
ENDROOT
BRANCH   4  15
HETATM   15  C   UNK     0       3.364   0.060   0.781  0.00  0.00     0.153 C 
BRANCH  15  16
HETATM   16  C   UNK     0       4.118  -0.460  -0.434  0.00  0.00     0.143 C 
HETATM   17  O   UNK     0       3.601  -0.734  -1.508  0.00  0.00    -0.650 OA
BRANCH  16  18
HETATM   18  O   UNK     0       5.450  -0.592  -0.199  0.00  0.00    -0.776 OA
HETATM   19  H   UNK     0       5.928  -0.928  -0.988  0.00  0.00     0.167 HD
ENDBRANCH  16  18
ENDBRANCH  15  16
ENDBRANCH   4  15
BRANCH   6  20
HETATM   20  O   UNK     0       1.082  -1.997   0.581  0.00  0.00    -0.345 OA
HETATM   21  H   UNK     0       2.023  -2.191   0.730  0.00  0.00     0.219 HD
ENDBRANCH   6  20
TORSDOF 4
