REMARK  4 active torsions:
REMARK  status: ('A' for Active; 'I' for Inactive)
REMARK    1  A    between atoms: N_3  and  C_11 
REMARK    2  A    between atoms: N_4  and  C_17 
REMARK       I    between atoms: N_6  and  C_23 
REMARK    3  A    between atoms: C_11  and  C_15 
REMARK    4  A    between atoms: C_17  and  C_23 
ROOT
HETATM    1  O   UNK     0      -2.341   0.168   2.057  0.00  0.00    -0.266 OA
HETATM    2  N   UNK     0       1.343  -1.379   0.503  0.00  0.00    -0.348 N 
HETATM    3  N   UNK     0      -3.093  -0.677   0.010  0.00  0.00    -0.225 N 
HETATM    4  N   UNK     0      -2.844  -1.324  -1.199  0.00  0.00    -0.181 NA
HETATM    5  C   UNK     0       0.394  -0.784   1.303  0.00  0.00     0.025 A 
HETATM    6  C   UNK     0       0.761  -1.827  -0.660  0.00  0.00     0.021 A 
HETATM    7  C   UNK     0      -0.803  -0.859   0.633  0.00  0.00     0.070 A 
HETATM    8  C   UNK     0      -0.571  -1.507  -0.587  0.00  0.00     0.023 A 
HETATM    9  C   UNK     0      -2.120  -0.402   0.992  0.00  0.00     0.277 A 
HETATM   10  C   UNK     0       0.731  -0.207   2.621  0.00  0.00     0.069 C 
HETATM   11  C   UNK     0       1.532  -2.512  -1.718  0.00  0.00     0.069 C 
HETATM   12  C   UNK     0      -1.646  -1.726  -1.496  0.00  0.00     0.153 A 
ENDROOT
BRANCH   2  13
HETATM   13  C   UNK     0       2.746  -1.512   0.834  0.00  0.00     0.167 C 
BRANCH  13  14
HETATM   14  C   UNK     0       3.539  -0.327   0.354  0.00  0.00    -0.040 A 
HETATM   15  C   UNK     0       3.703   0.770   1.189  0.00  0.00     0.009 A 
HETATM   16  C   UNK     0       4.438   1.869   0.743  0.00  0.00     0.007 A 
HETATM   17  C   UNK     0       5.002   1.860  -0.533  0.00  0.00    -0.062 A 
HETATM   18  C   UNK     0       4.830   0.752  -1.363  0.00  0.00     0.007 A 
HETATM   19  C   UNK     0       5.787   3.035  -1.009  0.00  0.00     0.048 C 
HETATM   20  C   UNK     0       4.095  -0.346  -0.918  0.00  0.00     0.009 A 
ENDBRANCH  13  14
ENDBRANCH   2  13
BRANCH   3  21
HETATM   21  C   UNK     0      -4.481  -0.288   0.202  0.00  0.00     0.257 C 
BRANCH  21  22
HETATM   22  C   UNK     0      -4.697   1.106  -0.347  0.00  0.00     0.237 C 
HETATM   23  O   UNK     0      -3.793   1.791  -0.819  0.00  0.00    -0.272 OA
HETATM   24  N   UNK     0      -6.016   1.511  -0.199  0.00  0.00    -0.364 N 
HETATM   25  C   UNK     0      -6.492   2.818  -0.593  0.00  0.00     0.149 C 
HETATM   26  H   UNK     0      -6.683   0.878   0.232  0.00  0.00     0.161 HD
ENDBRANCH  21  22
ENDBRANCH   3  21
TORSDOF 4
