REMARK  5 active torsions:
REMARK  status: ('A' for Active; 'I' for Inactive)
REMARK    1  A    between atoms: S_2  and  C_15 
REMARK    2  A    between atoms: S_2  and  C_20 
REMARK    3  A    between atoms: N_5  and  C_12 
REMARK       I    between atoms: N_5  and  C_16 
REMARK    4  A    between atoms: C_10  and  C_11 
REMARK    5  A    between atoms: C_15  and  C_16 
ROOT
HETATM    1  O   UNK     0       0.213  -1.294  -0.770  0.00  0.00    -0.272 OA
HETATM    2  N   UNK     0       0.234   1.016  -0.304  0.00  0.00    -0.155 N 
HETATM    3  C   UNK     0       0.795  -0.222  -0.629  0.00  0.00     0.245 C 
HETATM    4  H   UNK     0       0.845   1.824  -0.213  0.00  0.00     0.187 HD
ENDROOT
BRANCH   2   5
HETATM    5  C   UNK     0      -1.105   1.278  -0.074  0.00  0.00     0.737 A 
HETATM    6  N   UNK     0      -1.994   0.221  -0.172  0.00  0.00    -0.052 NA
HETATM    7  C   UNK     0      -3.193   0.693   0.081  0.00  0.00     0.145 A 
HETATM    8  S   UNK     0      -3.190   2.374   0.423  0.00  0.00     0.052 SA
HETATM    9  N   UNK     0      -1.533   2.503   0.231  0.00  0.00    -0.021 NA
BRANCH   7  10
HETATM   10  C   UNK     0      -4.429  -0.050   0.091  0.00  0.00     0.002 A 
HETATM   11  C   UNK     0      -4.408  -1.438   0.231  0.00  0.00     0.014 A 
HETATM   12  C   UNK     0      -5.604  -2.156   0.239  0.00  0.00     0.001 A 
HETATM   13  C   UNK     0      -6.821  -1.486   0.109  0.00  0.00     0.000 A 
HETATM   14  C   UNK     0      -6.841  -0.098  -0.031  0.00  0.00     0.001 A 
HETATM   15  C   UNK     0      -5.646   0.620  -0.040  0.00  0.00     0.014 A 
ENDBRANCH   7  10
ENDBRANCH   2   5
BRANCH   3  16
HETATM   16  C   UNK     0       2.298  -0.143  -0.788  0.00  0.00     0.185 C 
BRANCH  16  17
HETATM   17  S   UNK     0       3.070  -0.475   0.813  0.00  0.00    -0.092 SA
BRANCH  17  18
HETATM   18  C   UNK     0       4.816  -0.324   0.355  0.00  0.00     0.159 A 
HETATM   19  S   UNK     0       6.039  -0.539   1.487  0.00  0.00    -0.045 SA
HETATM   20  C   UNK     0       7.102  -0.220   0.179  0.00  0.00     0.096 A 
HETATM   21  N   UNK     0       6.506   0.017  -0.970  0.00  0.00    -0.146 NA
HETATM   22  C   UNK     0       8.562  -0.229   0.397  0.00  0.00     0.081 C 
HETATM   23  N   UNK     0       5.129  -0.047  -0.858  0.00  0.00    -0.135 NA
ENDBRANCH  17  18
ENDBRANCH  16  17
ENDBRANCH   3  16
TORSDOF 5
