REMARK  4 active torsions:
REMARK  status: ('A' for Active; 'I' for Inactive)
REMARK    1  A    between atoms: O_1  and  C_7 
REMARK    2  A    between atoms: O_2  and  C_9 
REMARK       I    between atoms: N_4  and  C_12 
REMARK    3  A    between atoms: N_4  and  C_13 
REMARK    4  A    between atoms: C_6  and  C_12 
ROOT
HETATM    1  C   UNK     0      -0.711  -0.760   0.054  0.00  0.00     0.035 A 
HETATM    2  C   UNK     0      -2.620   0.698  -0.203  0.00  0.00     0.102 A 
HETATM    3  C   UNK     0      -1.245   0.482  -0.290  0.00  0.00     0.056 A 
HETATM    4  C   UNK     0      -3.462  -0.328   0.228  0.00  0.00     0.101 A 
HETATM    5  C   UNK     0      -1.553  -1.786   0.485  0.00  0.00     0.020 A 
HETATM    6  C   UNK     0      -2.928  -1.570   0.572  0.00  0.00     0.040 A 
ENDROOT
BRANCH   1   7
HETATM    7  C   UNK     0       0.723  -0.986  -0.035  0.00  0.00     0.256 C 
HETATM    8  O   UNK     0       1.140  -2.135  -0.249  0.00  0.00    -0.267 OA
HETATM    9  N   UNK     0       1.531   0.151   0.109  0.00  0.00    -0.323 N 
HETATM   10  H   UNK     0       1.080   1.036   0.324  0.00  0.00     0.169 HD
BRANCH   9  11
HETATM   11  C   UNK     0       2.943   0.242   0.045  0.00  0.00     0.037 A 
HETATM   12  C   UNK     0       3.685  -0.898  -0.186  0.00  0.00     0.049 A 
HETATM   13  C   UNK     0       5.062  -0.756  -0.240  0.00  0.00     0.118 A 
HETATM   14  N   UNK     0       5.708   0.421  -0.081  0.00  0.00    -0.273 NA
HETATM   15  C   UNK     0       4.933   1.506   0.143  0.00  0.00     0.118 A 
HETATM   16  C   UNK     0       3.549   1.470   0.215  0.00  0.00     0.049 A 
ENDBRANCH   9  11
ENDBRANCH   1   7
BRANCH   2  17
HETATM   17  O   UNK     0      -3.130   1.915  -0.541  0.00  0.00    -0.353 OA
HETATM   18  C   UNK     0      -3.234   2.885   0.500  0.00  0.00     0.210 C 
ENDBRANCH   2  17
BRANCH   4  19
HETATM   19  O   UNK     0      -4.806  -0.128   0.316  0.00  0.00    -0.353 OA
HETATM   20  C   UNK     0      -5.583  -0.425  -0.842  0.00  0.00     0.210 C 
ENDBRANCH   4  19
TORSDOF 4
