MODEL 1
REMARK VINA RESULT:      -6.5      0.000      0.000
REMARK  2 active torsions:
REMARK  status: ('A' for Active; 'I' for Inactive)
REMARK    1  A    between atoms: S_2  and  C_7 
REMARK    2  A    between atoms: S_2  and  C_11 
ROOT
HETATM    1 Cl   UNK     0      61.502  74.160  66.393  0.00  0.00    -0.084 Cl
HETATM    2  O   UNK     0      67.153  75.312  65.741  0.00  0.00    -0.284 OA
HETATM    3  N   UNK     0      66.634  73.163  66.241  0.00  0.00    -0.216 NA
HETATM    4  C   UNK     0      67.579  74.041  65.985  0.00  0.00     0.211 A 
HETATM    5  C   UNK     0      65.481  73.908  66.163  0.00  0.00     0.095 A 
HETATM    6  C   UNK     0      65.795  75.223  65.857  0.00  0.00     0.107 A 
HETATM    7  C   UNK     0      64.135  73.554  66.335  0.00  0.00     0.058 A 
HETATM    8  C   UNK     0      64.865  76.243  65.703  0.00  0.00     0.041 A 
HETATM    9  C   UNK     0      63.167  74.557  66.187  0.00  0.00     0.036 A 
HETATM   10  C   UNK     0      63.527  75.875  65.877  0.00  0.00     0.026 A 
ENDROOT
BRANCH   4  11
HETATM   11  S   UNK     0      69.271  73.620  65.954  0.00  0.00    -0.069 SA
BRANCH  11  12
HETATM   12  C   UNK     0      69.340  72.601  64.470  0.00  0.00     0.157 C 
HETATM   13  C   UNK     0      69.501  73.420  63.209  0.00  0.00     0.052 C 
HETATM   14  C   UNK     0      70.202  72.447  62.293  0.00  0.00     0.180 C 
HETATM   15  O   UNK     0      71.046  71.676  63.156  0.00  0.00    -0.321 OA
HETATM   16  C   UNK     0      70.576  71.746  64.443  0.00  0.00     0.273 C 
HETATM   17  O   UNK     0      71.080  71.157  65.387  0.00  0.00    -0.264 OA
ENDBRANCH  11  12
ENDBRANCH   4  11
TORSDOF 2
ENDMDL
MODEL 2
REMARK VINA RESULT:      -6.4     23.293     24.760
REMARK  2 active torsions:
REMARK  status: ('A' for Active; 'I' for Inactive)
REMARK    1  A    between atoms: S_2  and  C_7 
REMARK    2  A    between atoms: S_2  and  C_11 
ROOT
HETATM    1 Cl   UNK     0      64.954  59.547  44.797  0.00  0.00    -0.084 Cl
HETATM    2  O   UNK     0      59.675  58.484  46.964  0.00  0.00    -0.284 OA
HETATM    3  N   UNK     0      61.329  57.104  47.669  0.00  0.00    -0.216 NA
HETATM    4  C   UNK     0      60.055  57.421  47.728  0.00  0.00     0.211 A 
HETATM    5  C   UNK     0      61.845  58.029  46.794  0.00  0.00     0.095 A 
HETATM    6  C   UNK     0      60.836  58.875  46.361  0.00  0.00     0.107 A 
HETATM    7  C   UNK     0      63.148  58.225  46.313  0.00  0.00     0.058 A 
HETATM    8  C   UNK     0      61.013  59.926  45.469  0.00  0.00     0.041 A 
HETATM    9  C   UNK     0      63.365  59.276  45.411  0.00  0.00     0.036 A 
HETATM   10  C   UNK     0      62.317  60.109  44.999  0.00  0.00     0.026 A 
ENDROOT
BRANCH   4  11
HETATM   11  S   UNK     0      58.912  56.549  48.716  0.00  0.00    -0.069 SA
BRANCH  11  12
HETATM   12  C   UNK     0      58.432  57.830  49.889  0.00  0.00     0.157 C 
HETATM   13  C   UNK     0      57.059  57.595  50.478  0.00  0.00     0.052 C 
HETATM   14  C   UNK     0      57.171  58.286  51.815  0.00  0.00     0.180 C 
HETATM   15  O   UNK     0      58.530  58.086  52.217  0.00  0.00    -0.321 OA
HETATM   16  C   UNK     0      59.301  57.810  51.116  0.00  0.00     0.273 C 
HETATM   17  O   UNK     0      60.509  57.628  51.155  0.00  0.00    -0.264 OA
ENDBRANCH  11  12
ENDBRANCH   4  11
TORSDOF 2
ENDMDL
MODEL 3
REMARK VINA RESULT:      -6.3      2.689      2.944
REMARK  2 active torsions:
REMARK  status: ('A' for Active; 'I' for Inactive)
REMARK    1  A    between atoms: S_2  and  C_7 
REMARK    2  A    between atoms: S_2  and  C_11 
ROOT
HETATM    1 Cl   UNK     0      61.142  70.655  63.757  0.00  0.00    -0.084 Cl
HETATM    2  O   UNK     0      65.895  73.983  63.637  0.00  0.00    -0.284 OA
HETATM    3  N   UNK     0      65.398  73.043  65.638  0.00  0.00    -0.216 NA
HETATM    4  C   UNK     0      66.213  73.813  64.951  0.00  0.00     0.211 A 
HETATM    5  C   UNK     0      64.457  72.669  64.708  0.00  0.00     0.095 A 
HETATM    6  C   UNK     0      64.759  73.242  63.483  0.00  0.00     0.107 A 
HETATM    7  C   UNK     0      63.323  71.851  64.814  0.00  0.00     0.058 A 
HETATM    8  C   UNK     0      64.013  73.070  62.323  0.00  0.00     0.041 A 
HETATM    9  C   UNK     0      62.545  71.653  63.665  0.00  0.00     0.036 A 
HETATM   10  C   UNK     0      62.885  72.251  62.445  0.00  0.00     0.026 A 
ENDROOT
BRANCH   4  11
HETATM   11  S   UNK     0      67.614  74.572  65.661  0.00  0.00    -0.069 SA
BRANCH  11  12
HETATM   12  C   UNK     0      68.934  73.564  64.962  0.00  0.00     0.157 C 
HETATM   13  C   UNK     0      69.527  74.171  63.708  0.00  0.00     0.052 C 
HETATM   14  C   UNK     0      70.929  73.614  63.727  0.00  0.00     0.180 C 
HETATM   15  O   UNK     0      71.273  73.535  65.114  0.00  0.00    -0.321 OA
HETATM   16  C   UNK     0      70.129  73.510  65.872  0.00  0.00     0.273 C 
HETATM   17  O   UNK     0      70.118  73.412  67.090  0.00  0.00    -0.264 OA
ENDBRANCH  11  12
ENDBRANCH   4  11
TORSDOF 2
ENDMDL
MODEL 4
REMARK VINA RESULT:      -6.2     17.668     19.603
REMARK  2 active torsions:
REMARK  status: ('A' for Active; 'I' for Inactive)
REMARK    1  A    between atoms: S_2  and  C_7 
REMARK    2  A    between atoms: S_2  and  C_11 
ROOT
HETATM    1 Cl   UNK     0      68.852  64.221  53.976  0.00  0.00    -0.084 Cl
HETATM    2  O   UNK     0      71.944  59.921  51.602  0.00  0.00    -0.284 OA
HETATM    3  N   UNK     0      70.355  59.290  53.091  0.00  0.00    -0.216 NA
HETATM    4  C   UNK     0      71.310  58.915  52.269  0.00  0.00     0.211 A 
HETATM    5  C   UNK     0      70.350  60.659  52.966  0.00  0.00     0.095 A 
HETATM    6  C   UNK     0      71.321  61.048  52.056  0.00  0.00     0.107 A 
HETATM    7  C   UNK     0      69.563  61.644  53.581  0.00  0.00     0.058 A 
HETATM    8  C   UNK     0      71.585  62.363  51.693  0.00  0.00     0.041 A 
HETATM    9  C   UNK     0      69.800  62.983  53.240  0.00  0.00     0.036 A 
HETATM   10  C   UNK     0      70.791  63.333  52.314  0.00  0.00     0.026 A 
ENDROOT
BRANCH   4  11
HETATM   11  S   UNK     0      71.747  57.243  52.033  0.00  0.00    -0.069 SA
BRANCH  11  12
HETATM   12  C   UNK     0      72.627  56.904  53.569  0.00  0.00     0.157 C 
HETATM   13  C   UNK     0      72.572  55.443  53.960  0.00  0.00     0.052 C 
HETATM   14  C   UNK     0      73.841  55.289  54.762  0.00  0.00     0.180 C 
HETATM   15  O   UNK     0      74.779  56.169  54.135  0.00  0.00    -0.321 OA
HETATM   16  C   UNK     0      74.106  57.128  53.421  0.00  0.00     0.273 C 
HETATM   17  O   UNK     0      74.651  58.034  52.809  0.00  0.00    -0.264 OA
ENDBRANCH  11  12
ENDBRANCH   4  11
TORSDOF 2
ENDMDL
MODEL 5
REMARK VINA RESULT:      -6.2      5.277      6.285
REMARK  2 active torsions:
REMARK  status: ('A' for Active; 'I' for Inactive)
REMARK    1  A    between atoms: S_2  and  C_7 
REMARK    2  A    between atoms: S_2  and  C_11 
ROOT
HETATM    1 Cl   UNK     0      73.052  78.947  70.663  0.00  0.00    -0.084 Cl
HETATM    2  O   UNK     0      70.583  75.600  66.614  0.00  0.00    -0.284 OA
HETATM    3  N   UNK     0      72.839  75.788  66.500  0.00  0.00    -0.216 NA
HETATM    4  C   UNK     0      71.746  75.269  65.985  0.00  0.00     0.211 A 
HETATM    5  C   UNK     0      72.369  76.528  67.559  0.00  0.00     0.095 A 
HETATM    6  C   UNK     0      70.989  76.415  67.631  0.00  0.00     0.107 A 
HETATM    7  C   UNK     0      73.036  77.320  68.504  0.00  0.00     0.058 A 
HETATM    8  C   UNK     0      70.194  77.036  68.587  0.00  0.00     0.041 A 
HETATM    9  C   UNK     0      72.267  77.963  69.484  0.00  0.00     0.036 A 
HETATM   10  C   UNK     0      70.874  77.822  69.523  0.00  0.00     0.026 A 
ENDROOT
BRANCH   4  11
HETATM   11  S   UNK     0      71.767  74.222  64.590  0.00  0.00    -0.069 SA
BRANCH  11  12
HETATM   12  C   UNK     0      70.117  73.502  64.683  0.00  0.00     0.157 C 
HETATM   13  C   UNK     0      69.223  73.949  63.548  0.00  0.00     0.052 C 
HETATM   14  C   UNK     0      68.269  72.786  63.428  0.00  0.00     0.180 C 
HETATM   15  O   UNK     0      69.055  71.633  63.749  0.00  0.00    -0.321 OA
HETATM   16  C   UNK     0      70.152  72.013  64.481  0.00  0.00     0.273 C 
HETATM   17  O   UNK     0      70.982  71.233  64.923  0.00  0.00    -0.264 OA
ENDBRANCH  11  12
ENDBRANCH   4  11
TORSDOF 2
ENDMDL
MODEL 6
REMARK VINA RESULT:      -6.2     23.542     24.784
REMARK  2 active torsions:
REMARK  status: ('A' for Active; 'I' for Inactive)
REMARK    1  A    between atoms: S_2  and  C_7 
REMARK    2  A    between atoms: S_2  and  C_11 
ROOT
HETATM    1 Cl   UNK     0      55.092  55.848  63.536  0.00  0.00    -0.084 Cl
HETATM    2  O   UNK     0      56.600  52.917  68.313  0.00  0.00    -0.284 OA
HETATM    3  N   UNK     0      54.376  53.045  67.893  0.00  0.00    -0.216 NA
HETATM    4  C   UNK     0      55.327  52.603  68.686  0.00  0.00     0.211 A 
HETATM    5  C   UNK     0      55.068  53.710  66.910  0.00  0.00     0.095 A 
HETATM    6  C   UNK     0      56.429  53.634  67.164  0.00  0.00     0.107 A 
HETATM    7  C   UNK     0      54.628  54.403  65.772  0.00  0.00     0.058 A 
HETATM    8  C   UNK     0      57.416  54.200  66.366  0.00  0.00     0.041 A 
HETATM    9  C   UNK     0      55.596  54.988  64.943  0.00  0.00     0.036 A 
HETATM   10  C   UNK     0      56.962  54.887  65.235  0.00  0.00     0.026 A 
ENDROOT
BRANCH   4  11
HETATM   11  S   UNK     0      54.997  51.672  70.123  0.00  0.00    -0.069 SA
BRANCH  11  12
HETATM   12  C   UNK     0      54.822  50.020  69.424  0.00  0.00     0.157 C 
HETATM   13  C   UNK     0      53.793  49.965  68.315  0.00  0.00     0.052 C 
HETATM   14  C   UNK     0      54.296  48.811  67.484  0.00  0.00     0.180 C 
HETATM   15  O   UNK     0      55.722  48.880  67.585  0.00  0.00    -0.321 OA
HETATM   16  C   UNK     0      56.071  49.587  68.708  0.00  0.00     0.273 C 
HETATM   17  O   UNK     0      57.223  49.777  69.066  0.00  0.00    -0.264 OA
ENDBRANCH  11  12
ENDBRANCH   4  11
TORSDOF 2
ENDMDL
MODEL 7
REMARK VINA RESULT:      -6.1     23.991     25.225
REMARK  2 active torsions:
REMARK  status: ('A' for Active; 'I' for Inactive)
REMARK    1  A    between atoms: S_2  and  C_7 
REMARK    2  A    between atoms: S_2  and  C_11 
ROOT
HETATM    1 Cl   UNK     0      55.593  56.560  63.969  0.00  0.00    -0.084 Cl
HETATM    2  O   UNK     0      55.327  51.745  67.198  0.00  0.00    -0.284 OA
HETATM    3  N   UNK     0      57.215  52.979  67.419  0.00  0.00    -0.216 NA
HETATM    4  C   UNK     0      56.546  51.908  67.785  0.00  0.00     0.211 A 
HETATM    5  C   UNK     0      56.376  53.582  66.512  0.00  0.00     0.095 A 
HETATM    6  C   UNK     0      55.220  52.829  66.375  0.00  0.00     0.107 A 
HETATM    7  C   UNK     0      56.512  54.759  65.763  0.00  0.00     0.058 A 
HETATM    8  C   UNK     0      54.159  53.152  65.537  0.00  0.00     0.041 A 
HETATM    9  C   UNK     0      55.462  55.119  64.907  0.00  0.00     0.036 A 
HETATM   10  C   UNK     0      54.309  54.330  64.798  0.00  0.00     0.026 A 
ENDROOT
BRANCH   4  11
HETATM   11  S   UNK     0      57.165  50.763  68.946  0.00  0.00    -0.069 SA
BRANCH  11  12
HETATM   12  C   UNK     0      55.811  49.575  69.002  0.00  0.00     0.157 C 
HETATM   13  C   UNK     0      56.284  48.168  69.301  0.00  0.00     0.052 C 
HETATM   14  C   UNK     0      55.068  47.566  69.960  0.00  0.00     0.180 C 
HETATM   15  O   UNK     0      54.473  48.646  70.688  0.00  0.00    -0.321 OA
HETATM   16  C   UNK     0      54.889  49.842  70.159  0.00  0.00     0.273 C 
HETATM   17  O   UNK     0      54.514  50.933  70.560  0.00  0.00    -0.264 OA
ENDBRANCH  11  12
ENDBRANCH   4  11
TORSDOF 2
ENDMDL
MODEL 8
REMARK VINA RESULT:      -6.0     25.275     26.532
REMARK  2 active torsions:
REMARK  status: ('A' for Active; 'I' for Inactive)
REMARK    1  A    between atoms: S_2  and  C_7 
REMARK    2  A    between atoms: S_2  and  C_11 
ROOT
HETATM    1 Cl   UNK     0      60.919  52.561  48.986  0.00  0.00    -0.084 Cl
HETATM    2  O   UNK     0      60.160  56.996  45.320  0.00  0.00    -0.284 OA
HETATM    3  N   UNK     0      61.055  57.521  47.335  0.00  0.00    -0.216 NA
HETATM    4  C   UNK     0      60.651  57.951  46.159  0.00  0.00     0.211 A 
HETATM    5  C   UNK     0      60.814  56.170  47.278  0.00  0.00     0.095 A 
HETATM    6  C   UNK     0      60.266  55.845  46.046  0.00  0.00     0.107 A 
HETATM    7  C   UNK     0      61.026  55.149  48.216  0.00  0.00     0.058 A 
HETATM    8  C   UNK     0      59.903  54.562  45.655  0.00  0.00     0.041 A 
HETATM    9  C   UNK     0      60.673  53.841  47.857  0.00  0.00     0.036 A 
HETATM   10  C   UNK     0      60.122  53.555  46.601  0.00  0.00     0.026 A 
ENDROOT
BRANCH   4  11
HETATM   11  S   UNK     0      60.733  59.628  45.690  0.00  0.00    -0.069 SA
BRANCH  11  12
HETATM   12  C   UNK     0      62.400  59.709  45.011  0.00  0.00     0.157 C 
HETATM   13  C   UNK     0      63.439  59.139  45.952  0.00  0.00     0.052 C 
HETATM   14  C   UNK     0      64.509  58.681  44.992  0.00  0.00     0.180 C 
HETATM   15  O   UNK     0      63.796  58.241  43.831  0.00  0.00    -0.321 OA
HETATM   16  C   UNK     0      62.551  58.818  43.809  0.00  0.00     0.273 C 
HETATM   17  O   UNK     0      61.735  58.649  42.916  0.00  0.00    -0.264 OA
ENDBRANCH  11  12
ENDBRANCH   4  11
TORSDOF 2
ENDMDL
MODEL 9
REMARK VINA RESULT:      -5.9     17.935     20.028
REMARK  2 active torsions:
REMARK  status: ('A' for Active; 'I' for Inactive)
REMARK    1  A    between atoms: S_2  and  C_7 
REMARK    2  A    between atoms: S_2  and  C_11 
ROOT
HETATM    1 Cl   UNK     0      68.973  64.047  53.714  0.00  0.00    -0.084 Cl
HETATM    2  O   UNK     0      71.992  59.545  51.640  0.00  0.00    -0.284 OA
HETATM    3  N   UNK     0      70.362  59.039  53.131  0.00  0.00    -0.216 NA
HETATM    4  C   UNK     0      71.321  58.594  52.349  0.00  0.00     0.211 A 
HETATM    5  C   UNK     0      70.395  60.398  52.930  0.00  0.00     0.095 A 
HETATM    6  C   UNK     0      71.392  60.711  52.018  0.00  0.00     0.107 A 
HETATM    7  C   UNK     0      69.623  61.435  53.475  0.00  0.00     0.058 A 
HETATM    8  C   UNK     0      71.695  61.997  51.589  0.00  0.00     0.041 A 
HETATM    9  C   UNK     0      69.901  62.747  53.065  0.00  0.00     0.036 A 
HETATM   10  C   UNK     0      70.917  63.020  52.140  0.00  0.00     0.026 A 
ENDROOT
BRANCH   4  11
HETATM   11  S   UNK     0      71.718  56.901  52.215  0.00  0.00    -0.069 SA
BRANCH  11  12
HETATM   12  C   UNK     0      70.391  56.164  53.186  0.00  0.00     0.157 C 
HETATM   13  C   UNK     0      69.611  55.126  52.410  0.00  0.00     0.052 C 
HETATM   14  C   UNK     0      69.109  54.227  53.513  0.00  0.00     0.180 C 
HETATM   15  O   UNK     0      70.151  54.234  54.494  0.00  0.00    -0.321 OA
HETATM   16  C   UNK     0      70.929  55.353  54.332  0.00  0.00     0.273 C 
HETATM   17  O   UNK     0      71.874  55.639  55.051  0.00  0.00    -0.264 OA
ENDBRANCH  11  12
ENDBRANCH   4  11
TORSDOF 2
ENDMDL
