MODEL 1
REMARK VINA RESULT:      -7.5      0.000      0.000
REMARK  3 active torsions:
REMARK  status: ('A' for Active; 'I' for Inactive)
REMARK    1  A    between atoms: N_4  and  N_6 
REMARK       I    between atoms: N_6  and  C_16 
REMARK    2  A    between atoms: C_7  and  C_10 
REMARK    3  A    between atoms: C_16  and  C_19 
ROOT
HETATM    1  O   UNK     0      60.774  59.040  50.323  0.00  0.00    -0.265 OA
HETATM    2  N   UNK     0      60.209  57.714  48.493  0.00  0.00    -0.202 N 
HETATM    3  N   UNK     0      58.262  56.373  48.474  0.00  0.00    -0.232 NA
HETATM    4  C   UNK     0      59.337  56.812  47.900  0.00  0.00     0.134 A 
HETATM    5  C   UNK     0      60.027  58.243  49.765  0.00  0.00     0.280 A 
HETATM    6  C   UNK     0      57.975  56.843  49.769  0.00  0.00     0.074 A 
HETATM    7  C   UNK     0      58.803  57.755  50.443  0.00  0.00     0.063 A 
HETATM    8  C   UNK     0      56.820  56.384  50.412  0.00  0.00     0.032 A 
HETATM    9  C   UNK     0      58.485  58.200  51.730  0.00  0.00     0.019 A 
HETATM   10  C   UNK     0      56.499  56.825  51.697  0.00  0.00     0.002 A 
HETATM   11  C   UNK     0      57.329  57.731  52.354  0.00  0.00     0.001 A 
ENDROOT
BRANCH   2  12
HETATM   12  N   UNK     0      61.328  58.122  47.801  0.00  0.00    -0.253 N 
HETATM   13  C   UNK     0      61.244  59.261  47.021  0.00  0.00     0.294 C 
HETATM   14  O   UNK     0      60.215  59.937  46.945  0.00  0.00    -0.264 OA
HETATM   15  H   UNK     0      62.156  57.541  47.878  0.00  0.00     0.191 HD
BRANCH  13  16
HETATM   16  C   UNK     0      62.459  59.599  46.266  0.00  0.00     0.144 A 
HETATM   17  O   UNK     0      63.509  58.791  46.451  0.00  0.00    -0.317 OA
HETATM   18  C   UNK     0      64.487  59.305  45.659  0.00  0.00     0.143 A 
HETATM   19  C   UNK     0      64.033  60.420  44.993  0.00  0.00     0.027 A 
HETATM   20  C   UNK     0      62.692  60.604  45.403  0.00  0.00     0.045 A 
ENDBRANCH  13  16
ENDBRANCH   2  12
BRANCH   4  21
HETATM   21  C   UNK     0      59.635  56.310  46.530  0.00  0.00     0.057 A 
HETATM   22  C   UNK     0      60.185  54.930  46.381  0.00  0.00     0.013 A 
HETATM   23  C   UNK     0      58.774  55.230  45.964  0.00  0.00     0.013 A 
ENDBRANCH   4  21
TORSDOF 3
ENDMDL
MODEL 2
REMARK VINA RESULT:      -7.5     24.517     26.173
REMARK  3 active torsions:
REMARK  status: ('A' for Active; 'I' for Inactive)
REMARK    1  A    between atoms: N_4  and  N_6 
REMARK       I    between atoms: N_6  and  C_16 
REMARK    2  A    between atoms: C_7  and  C_10 
REMARK    3  A    between atoms: C_16  and  C_19 
ROOT
HETATM    1  O   UNK     0      70.704  71.132  64.811  0.00  0.00    -0.265 OA
HETATM    2  N   UNK     0      71.044  73.159  65.909  0.00  0.00    -0.202 N 
HETATM    3  N   UNK     0      69.486  74.932  65.773  0.00  0.00    -0.232 NA
HETATM    4  C   UNK     0      70.599  74.438  66.212  0.00  0.00     0.134 A 
HETATM    5  C   UNK     0      70.346  72.269  65.103  0.00  0.00     0.280 A 
HETATM    6  C   UNK     0      68.692  74.116  64.944  0.00  0.00     0.074 A 
HETATM    7  C   UNK     0      69.066  72.811  64.587  0.00  0.00     0.063 A 
HETATM    8  C   UNK     0      67.483  74.625  64.457  0.00  0.00     0.032 A 
HETATM    9  C   UNK     0      68.252  72.031  63.761  0.00  0.00     0.019 A 
HETATM   10  C   UNK     0      66.667  73.850  63.630  0.00  0.00     0.002 A 
HETATM   11  C   UNK     0      67.050  72.555  63.284  0.00  0.00     0.001 A 
ENDROOT
BRANCH   2  12
HETATM   12  N   UNK     0      72.244  72.724  66.425  0.00  0.00    -0.253 N 
HETATM   13  C   UNK     0      73.370  72.785  65.622  0.00  0.00     0.294 C 
HETATM   14  O   UNK     0      73.341  73.239  64.476  0.00  0.00    -0.264 OA
HETATM   15  H   UNK     0      72.234  72.349  67.367  0.00  0.00     0.191 HD
BRANCH  13  16
HETATM   16  C   UNK     0      74.600  72.245  66.220  0.00  0.00     0.144 A 
HETATM   17  O   UNK     0      74.590  70.939  66.507  0.00  0.00    -0.317 OA
HETATM   18  C   UNK     0      75.816  70.691  67.038  0.00  0.00     0.143 A 
HETATM   19  C   UNK     0      76.569  71.842  67.074  0.00  0.00     0.027 A 
HETATM   20  C   UNK     0      75.754  72.862  66.530  0.00  0.00     0.045 A 
ENDBRANCH  13  16
ENDBRANCH   2  12
BRANCH   4  21
HETATM   21  C   UNK     0      71.434  75.306  67.088  0.00  0.00     0.057 A 
HETATM   22  C   UNK     0      71.842  76.649  66.579  0.00  0.00     0.013 A 
HETATM   23  C   UNK     0      70.818  76.535  67.670  0.00  0.00     0.013 A 
ENDBRANCH   4  21
TORSDOF 3
ENDMDL
MODEL 3
REMARK VINA RESULT:      -7.2     25.566     27.453
REMARK  3 active torsions:
REMARK  status: ('A' for Active; 'I' for Inactive)
REMARK    1  A    between atoms: N_4  and  N_6 
REMARK       I    between atoms: N_6  and  C_16 
REMARK    2  A    between atoms: C_7  and  C_10 
REMARK    3  A    between atoms: C_16  and  C_19 
ROOT
HETATM    1  O   UNK     0      71.960  71.528  65.839  0.00  0.00    -0.265 OA
HETATM    2  N   UNK     0      72.393  73.803  65.584  0.00  0.00    -0.202 N 
HETATM    3  N   UNK     0      74.517  74.732  66.045  0.00  0.00    -0.232 NA
HETATM    4  C   UNK     0      73.285  74.862  65.667  0.00  0.00     0.134 A 
HETATM    5  C   UNK     0      72.720  72.489  65.898  0.00  0.00     0.280 A 
HETATM    6  C   UNK     0      74.961  73.441  66.388  0.00  0.00     0.074 A 
HETATM    7  C   UNK     0      74.125  72.314  66.334  0.00  0.00     0.063 A 
HETATM    8  C   UNK     0      76.288  73.273  66.800  0.00  0.00     0.032 A 
HETATM    9  C   UNK     0      74.603  71.048  66.683  0.00  0.00     0.019 A 
HETATM   10  C   UNK     0      76.769  72.010  67.150  0.00  0.00     0.002 A 
HETATM   11  C   UNK     0      75.929  70.900  67.091  0.00  0.00     0.001 A 
ENDROOT
BRANCH   2  12
HETATM   12  N   UNK     0      71.101  74.042  65.171  0.00  0.00    -0.253 N 
HETATM   13  C   UNK     0      70.127  74.251  66.132  0.00  0.00     0.294 C 
HETATM   14  O   UNK     0      70.379  74.258  67.339  0.00  0.00    -0.264 OA
HETATM   15  H   UNK     0      70.924  74.023  64.173  0.00  0.00     0.191 HD
BRANCH  13  16
HETATM   16  C   UNK     0      68.763  74.438  65.616  0.00  0.00     0.144 A 
HETATM   17  O   UNK     0      67.907  75.062  66.432  0.00  0.00    -0.317 OA
HETATM   18  C   UNK     0      66.739  75.111  65.739  0.00  0.00     0.143 A 
HETATM   19  C   UNK     0      66.884  74.520  64.506  0.00  0.00     0.027 A 
HETATM   20  C   UNK     0      68.226  74.079  64.437  0.00  0.00     0.045 A 
ENDBRANCH  13  16
ENDBRANCH   2  12
BRANCH   4  21
HETATM   21  C   UNK     0      72.821  76.231  65.306  0.00  0.00     0.057 A 
HETATM   22  C   UNK     0      72.492  77.184  66.406  0.00  0.00     0.013 A 
HETATM   23  C   UNK     0      73.727  77.385  65.577  0.00  0.00     0.013 A 
ENDBRANCH   4  21
TORSDOF 3
ENDMDL
MODEL 4
REMARK VINA RESULT:      -7.0      1.479      6.363
REMARK  3 active torsions:
REMARK  status: ('A' for Active; 'I' for Inactive)
REMARK    1  A    between atoms: N_4  and  N_6 
REMARK       I    between atoms: N_6  and  C_16 
REMARK    2  A    between atoms: C_7  and  C_10 
REMARK    3  A    between atoms: C_16  and  C_19 
ROOT
HETATM    1  O   UNK     0      59.835  60.027  47.267  0.00  0.00    -0.265 OA
HETATM    2  N   UNK     0      60.431  57.824  47.734  0.00  0.00    -0.202 N 
HETATM    3  N   UNK     0      62.410  56.855  46.878  0.00  0.00    -0.232 NA
HETATM    4  C   UNK     0      61.324  56.774  47.579  0.00  0.00     0.134 A 
HETATM    5  C   UNK     0      60.601  59.076  47.155  0.00  0.00     0.280 A 
HETATM    6  C   UNK     0      62.687  58.081  46.243  0.00  0.00     0.074 A 
HETATM    7  C   UNK     0      61.837  59.194  46.347  0.00  0.00     0.063 A 
HETATM    8  C   UNK     0      63.854  58.196  45.480  0.00  0.00     0.032 A 
HETATM    9  C   UNK     0      62.146  60.395  45.702  0.00  0.00     0.019 A 
HETATM   10  C   UNK     0      64.165  59.393  44.833  0.00  0.00     0.002 A 
HETATM   11  C   UNK     0      63.313  60.491  44.944  0.00  0.00     0.001 A 
ENDROOT
BRANCH   2  12
HETATM   12  N   UNK     0      59.302  57.639  48.501  0.00  0.00    -0.253 N 
HETATM   13  C   UNK     0      59.365  57.930  49.852  0.00  0.00     0.294 C 
HETATM   14  O   UNK     0      60.384  58.373  50.387  0.00  0.00    -0.264 OA
HETATM   15  H   UNK     0      58.482  57.267  48.033  0.00  0.00     0.191 HD
BRANCH  13  16
HETATM   16  C   UNK     0      58.139  57.650  50.614  0.00  0.00     0.144 A 
HETATM   17  O   UNK     0      57.197  56.949  49.975  0.00  0.00    -0.317 OA
HETATM   18  C   UNK     0      56.186  56.824  50.874  0.00  0.00     0.143 A 
HETATM   19  C   UNK     0      56.512  57.447  52.057  0.00  0.00     0.027 A 
HETATM   20  C   UNK     0      57.806  57.988  51.872  0.00  0.00     0.045 A 
ENDBRANCH  13  16
ENDBRANCH   2  12
BRANCH   4  21
HETATM   21  C   UNK     0      61.038  55.474  48.247  0.00  0.00     0.057 A 
HETATM   22  C   UNK     0      60.377  54.396  47.454  0.00  0.00     0.013 A 
HETATM   23  C   UNK     0      61.823  54.273  47.837  0.00  0.00     0.013 A 
ENDBRANCH   4  21
TORSDOF 3
ENDMDL
MODEL 5
REMARK VINA RESULT:      -6.9     21.960     24.309
REMARK  3 active torsions:
REMARK  status: ('A' for Active; 'I' for Inactive)
REMARK    1  A    between atoms: N_4  and  N_6 
REMARK       I    between atoms: N_6  and  C_16 
REMARK    2  A    between atoms: C_7  and  C_10 
REMARK    3  A    between atoms: C_16  and  C_19 
ROOT
HETATM    1  O   UNK     0      67.225  71.015  64.748  0.00  0.00    -0.265 OA
HETATM    2  N   UNK     0      66.439  73.146  65.269  0.00  0.00    -0.202 N 
HETATM    3  N   UNK     0      67.885  75.010  65.419  0.00  0.00    -0.232 NA
HETATM    4  C   UNK     0      66.701  74.490  65.489  0.00  0.00     0.134 A 
HETATM    5  C   UNK     0      67.416  72.210  64.949  0.00  0.00     0.280 A 
HETATM    6  C   UNK     0      68.956  74.153  65.101  0.00  0.00     0.074 A 
HETATM    7  C   UNK     0      68.781  72.780  64.862  0.00  0.00     0.063 A 
HETATM    8  C   UNK     0      70.246  74.690  65.017  0.00  0.00     0.032 A 
HETATM    9  C   UNK     0      69.869  71.961  64.549  0.00  0.00     0.019 A 
HETATM   10  C   UNK     0      71.336  73.875  64.705  0.00  0.00     0.002 A 
HETATM   11  C   UNK     0      71.148  72.514  64.471  0.00  0.00     0.001 A 
ENDROOT
BRANCH   2  12
HETATM   12  N   UNK     0      65.145  72.687  65.367  0.00  0.00    -0.253 N 
HETATM   13  C   UNK     0      64.373  72.633  64.220  0.00  0.00     0.294 C 
HETATM   14  O   UNK     0      64.810  72.954  63.113  0.00  0.00    -0.264 OA
HETATM   15  H   UNK     0      64.812  72.437  66.293  0.00  0.00     0.191 HD
BRANCH  13  16
HETATM   16  C   UNK     0      62.984  72.191  64.416  0.00  0.00     0.144 A 
HETATM   17  O   UNK     0      62.238  72.941  65.234  0.00  0.00    -0.317 OA
HETATM   18  C   UNK     0      61.021  72.337  65.248  0.00  0.00     0.143 A 
HETATM   19  C   UNK     0      61.026  71.223  64.441  0.00  0.00     0.027 A 
HETATM   20  C   UNK     0      62.329  71.138  63.896  0.00  0.00     0.045 A 
ENDBRANCH  13  16
ENDBRANCH   2  12
BRANCH   4  21
HETATM   21  C   UNK     0      65.573  75.402  65.827  0.00  0.00     0.057 A 
HETATM   22  C   UNK     0      65.805  76.874  65.766  0.00  0.00     0.013 A 
HETATM   23  C   UNK     0      64.950  76.202  64.732  0.00  0.00     0.013 A 
ENDBRANCH   4  21
TORSDOF 3
ENDMDL
MODEL 6
REMARK VINA RESULT:      -6.7      1.905      6.188
REMARK  3 active torsions:
REMARK  status: ('A' for Active; 'I' for Inactive)
REMARK    1  A    between atoms: N_4  and  N_6 
REMARK       I    between atoms: N_6  and  C_16 
REMARK    2  A    between atoms: C_7  and  C_10 
REMARK    3  A    between atoms: C_16  and  C_19 
ROOT
HETATM    1  O   UNK     0      60.137  59.674  48.720  0.00  0.00    -0.265 OA
HETATM    2  N   UNK     0      59.315  57.599  48.050  0.00  0.00    -0.202 N 
HETATM    3  N   UNK     0      59.828  56.675  45.935  0.00  0.00    -0.232 NA
HETATM    4  C   UNK     0      59.234  56.607  47.084  0.00  0.00     0.134 A 
HETATM    5  C   UNK     0      60.041  58.774  47.892  0.00  0.00     0.280 A 
HETATM    6  C   UNK     0      60.595  57.824  45.664  0.00  0.00     0.074 A 
HETATM    7  C   UNK     0      60.731  58.876  46.585  0.00  0.00     0.063 A 
HETATM    8  C   UNK     0      61.248  57.923  44.431  0.00  0.00     0.032 A 
HETATM    9  C   UNK     0      61.501  60.002  46.280  0.00  0.00     0.019 A 
HETATM   10  C   UNK     0      62.018  59.047  44.122  0.00  0.00     0.002 A 
HETATM   11  C   UNK     0      62.144  60.083  45.045  0.00  0.00     0.001 A 
ENDROOT
BRANCH   2  12
HETATM   12  N   UNK     0      58.646  57.435  49.242  0.00  0.00    -0.253 N 
HETATM   13  C   UNK     0      59.328  56.884  50.312  0.00  0.00     0.294 C 
HETATM   14  O   UNK     0      60.517  56.562  50.245  0.00  0.00    -0.264 OA
HETATM   15  H   UNK     0      57.668  57.702  49.263  0.00  0.00     0.191 HD
BRANCH  13  16
HETATM   16  C   UNK     0      58.530  56.683  51.531  0.00  0.00     0.144 A 
HETATM   17  O   UNK     0      58.659  55.494  52.128  0.00  0.00    -0.317 OA
HETATM   18  C   UNK     0      57.837  55.556  53.209  0.00  0.00     0.143 A 
HETATM   19  C   UNK     0      57.211  56.780  53.270  0.00  0.00     0.027 A 
HETATM   20  C   UNK     0      57.678  57.516  52.155  0.00  0.00     0.045 A 
ENDBRANCH  13  16
ENDBRANCH   2  12
BRANCH   4  21
HETATM   21  C   UNK     0      58.424  55.389  47.363  0.00  0.00     0.057 A 
HETATM   22  C   UNK     0      58.478  54.259  46.389  0.00  0.00     0.013 A 
HETATM   23  C   UNK     0      59.134  54.129  47.733  0.00  0.00     0.013 A 
ENDBRANCH   4  21
TORSDOF 3
ENDMDL
MODEL 7
REMARK VINA RESULT:      -6.6      3.643      6.081
REMARK  3 active torsions:
REMARK  status: ('A' for Active; 'I' for Inactive)
REMARK    1  A    between atoms: N_4  and  N_6 
REMARK       I    between atoms: N_6  and  C_16 
REMARK    2  A    between atoms: C_7  and  C_10 
REMARK    3  A    between atoms: C_16  and  C_19 
ROOT
HETATM    1  O   UNK     0      55.044  55.507  48.662  0.00  0.00    -0.265 OA
HETATM    2  N   UNK     0      55.967  55.841  50.775  0.00  0.00    -0.202 N 
HETATM    3  N   UNK     0      55.279  54.582  52.653  0.00  0.00    -0.232 NA
HETATM    4  C   UNK     0      56.018  55.501  52.119  0.00  0.00     0.134 A 
HETATM    5  C   UNK     0      55.119  55.235  49.855  0.00  0.00     0.280 A 
HETATM    6  C   UNK     0      54.380  53.897  51.814  0.00  0.00     0.074 A 
HETATM    7  C   UNK     0      54.263  54.178  50.443  0.00  0.00     0.063 A 
HETATM    8  C   UNK     0      53.571  52.898  52.366  0.00  0.00     0.032 A 
HETATM    9  C   UNK     0      53.358  53.476  49.641  0.00  0.00     0.019 A 
HETATM   10  C   UNK     0      52.665  52.196  51.569  0.00  0.00     0.002 A 
HETATM   11  C   UNK     0      52.559  52.484  50.209  0.00  0.00     0.001 A 
ENDROOT
BRANCH   2  12
HETATM   12  N   UNK     0      56.793  56.836  50.300  0.00  0.00    -0.253 N 
HETATM   13  C   UNK     0      58.015  56.478  49.759  0.00  0.00     0.294 C 
HETATM   14  O   UNK     0      58.377  55.303  49.662  0.00  0.00    -0.264 OA
HETATM   15  H   UNK     0      56.470  57.792  50.401  0.00  0.00     0.191 HD
BRANCH  13  16
HETATM   16  C   UNK     0      58.866  57.598  49.330  0.00  0.00     0.144 A 
HETATM   17  O   UNK     0      58.629  58.081  48.106  0.00  0.00    -0.317 OA
HETATM   18  C   UNK     0      59.527  59.088  47.950  0.00  0.00     0.143 A 
HETATM   19  C   UNK     0      60.309  59.218  49.075  0.00  0.00     0.027 A 
HETATM   20  C   UNK     0      59.861  58.227  49.980  0.00  0.00     0.045 A 
ENDBRANCH  13  16
ENDBRANCH   2  12
BRANCH   4  21
HETATM   21  C   UNK     0      56.966  56.222  53.013  0.00  0.00     0.057 A 
HETATM   22  C   UNK     0      57.131  55.738  54.415  0.00  0.00     0.013 A 
HETATM   23  C   UNK     0      58.230  55.537  53.412  0.00  0.00     0.013 A 
ENDBRANCH   4  21
TORSDOF 3
ENDMDL
MODEL 8
REMARK VINA RESULT:      -6.5     32.797     34.581
REMARK  3 active torsions:
REMARK  status: ('A' for Active; 'I' for Inactive)
REMARK    1  A    between atoms: N_4  and  N_6 
REMARK       I    between atoms: N_6  and  C_16 
REMARK    2  A    between atoms: C_7  and  C_10 
REMARK    3  A    between atoms: C_16  and  C_19 
ROOT
HETATM    1  O   UNK     0      56.436  58.018  80.218  0.00  0.00    -0.265 OA
HETATM    2  N   UNK     0      55.895  57.098  82.289  0.00  0.00    -0.202 N 
HETATM    3  N   UNK     0      53.751  57.356  83.251  0.00  0.00    -0.232 NA
HETATM    4  C   UNK     0      54.961  56.895  83.294  0.00  0.00     0.134 A 
HETATM    5  C   UNK     0      55.638  57.816  81.128  0.00  0.00     0.280 A 
HETATM    6  C   UNK     0      53.377  58.102  82.117  0.00  0.00     0.074 A 
HETATM    7  C   UNK     0      54.260  58.355  81.054  0.00  0.00     0.063 A 
HETATM    8  C   UNK     0      52.076  58.611  82.045  0.00  0.00     0.032 A 
HETATM    9  C   UNK     0      53.851  59.100  79.944  0.00  0.00     0.019 A 
HETATM   10  C   UNK     0      51.665  59.356  80.938  0.00  0.00     0.002 A 
HETATM   11  C   UNK     0      52.550  59.600  79.890  0.00  0.00     0.001 A 
ENDROOT
BRANCH   2  12
HETATM   12  N   UNK     0      57.158  56.567  82.428  0.00  0.00    -0.253 N 
HETATM   13  C   UNK     0      57.396  55.292  81.946  0.00  0.00     0.294 C 
HETATM   14  O   UNK     0      56.528  54.628  81.374  0.00  0.00    -0.264 OA
HETATM   15  H   UNK     0      57.848  57.135  82.908  0.00  0.00     0.191 HD
BRANCH  13  16
HETATM   16  C   UNK     0      58.750  54.771  82.185  0.00  0.00     0.144 A 
HETATM   17  O   UNK     0      59.331  54.149  81.154  0.00  0.00    -0.317 OA
HETATM   18  C   UNK     0      60.550  53.768  81.619  0.00  0.00     0.143 A 
HETATM   19  C   UNK     0      60.710  54.157  82.928  0.00  0.00     0.027 A 
HETATM   20  C   UNK     0      59.514  54.819  83.291  0.00  0.00     0.045 A 
ENDBRANCH  13  16
ENDBRANCH   2  12
BRANCH   4  21
HETATM   21  C   UNK     0      55.350  56.108  84.498  0.00  0.00     0.057 A 
HETATM   22  C   UNK     0      54.927  56.604  85.840  0.00  0.00     0.013 A 
HETATM   23  C   UNK     0      54.284  55.383  85.250  0.00  0.00     0.013 A 
ENDBRANCH   4  21
TORSDOF 3
ENDMDL
MODEL 9
REMARK VINA RESULT:      -6.5     32.034     35.301
REMARK  3 active torsions:
REMARK  status: ('A' for Active; 'I' for Inactive)
REMARK    1  A    between atoms: N_4  and  N_6 
REMARK       I    between atoms: N_6  and  C_16 
REMARK    2  A    between atoms: C_7  and  C_10 
REMARK    3  A    between atoms: C_16  and  C_19 
ROOT
HETATM    1  O   UNK     0      54.243  56.642  84.637  0.00  0.00    -0.265 OA
HETATM    2  N   UNK     0      55.836  55.799  83.160  0.00  0.00    -0.202 N 
HETATM    3  N   UNK     0      57.951  55.044  83.899  0.00  0.00    -0.232 NA
HETATM    4  C   UNK     0      57.097  55.262  82.950  0.00  0.00     0.134 A 
HETATM    5  C   UNK     0      55.349  56.164  84.410  0.00  0.00     0.280 A 
HETATM    6  C   UNK     0      57.565  55.376  85.212  0.00  0.00     0.074 A 
HETATM    7  C   UNK     0      56.308  55.925  85.514  0.00  0.00     0.063 A 
HETATM    8  C   UNK     0      58.468  55.151  86.257  0.00  0.00     0.032 A 
HETATM    9  C   UNK     0      55.961  56.241  86.831  0.00  0.00     0.019 A 
HETATM   10  C   UNK     0      58.125  55.467  87.573  0.00  0.00     0.002 A 
HETATM   11  C   UNK     0      56.874  56.010  87.859  0.00  0.00     0.001 A 
ENDROOT
BRANCH   2  12
HETATM   12  N   UNK     0      54.999  55.994  82.084  0.00  0.00    -0.253 N 
HETATM   13  C   UNK     0      55.048  57.206  81.419  0.00  0.00     0.294 C 
HETATM   14  O   UNK     0      55.831  58.105  81.737  0.00  0.00    -0.264 OA
HETATM   15  H   UNK     0      54.362  55.239  81.852  0.00  0.00     0.191 HD
BRANCH  13  16
HETATM   16  C   UNK     0      54.082  57.362  80.321  0.00  0.00     0.144 A 
HETATM   17  O   UNK     0      52.808  57.086  80.616  0.00  0.00    -0.317 OA
HETATM   18  C   UNK     0      52.128  57.301  79.459  0.00  0.00     0.143 A 
HETATM   19  C   UNK     0      52.987  57.708  78.463  0.00  0.00     0.027 A 
HETATM   20  C   UNK     0      54.275  57.744  79.046  0.00  0.00     0.045 A 
ENDBRANCH  13  16
ENDBRANCH   2  12
BRANCH   4  21
HETATM   21  C   UNK     0      57.513  54.909  81.563  0.00  0.00     0.057 A 
HETATM   22  C   UNK     0      58.798  54.176  81.370  0.00  0.00     0.013 A 
HETATM   23  C   UNK     0      57.489  53.474  81.155  0.00  0.00     0.013 A 
ENDBRANCH   4  21
TORSDOF 3
ENDMDL
