MODEL 1
REMARK VINA RESULT:      -7.7      0.000      0.000
REMARK  6 active torsions:
REMARK  status: ('A' for Active; 'I' for Inactive)
REMARK    1  A    between atoms: S_1  and  C_16 
REMARK    2  A    between atoms: S_1  and  C_17 
REMARK    3  A    between atoms: O_2  and  C_14 
REMARK    4  A    between atoms: O_2  and  C_19 
REMARK       I    between atoms: N_6  and  C_14 
REMARK    5  A    between atoms: N_7  and  C_9 
REMARK       I    between atoms: N_7  and  C_15 
REMARK    6  A    between atoms: C_15  and  C_16 
ROOT
HETATM    1  O   UNK     0      70.708  71.000  64.844  0.00  0.00    -0.273 OA
HETATM    2  N   UNK     0      71.339  73.198  64.427  0.00  0.00    -0.356 N 
HETATM    3  C   UNK     0      70.664  72.019  64.156  0.00  0.00     0.227 C 
HETATM    4  H   UNK     0      71.284  73.958  63.756  0.00  0.00     0.162 HD
ENDROOT
BRANCH   3   5
HETATM    5  C   UNK     0      69.849  72.085  62.886  0.00  0.00     0.182 C 
BRANCH   5   6
HETATM    6  S   UNK     0      69.448  73.813  62.535  0.00  0.00    -0.120 SA
BRANCH   6   7
HETATM    7  C   UNK     0      67.733  73.751  62.661  0.00  0.00     0.018 A 
HETATM    8  C   UNK     0      67.068  74.108  63.932  0.00  0.00     0.008 A 
HETATM    9  C   UNK     0      65.656  74.085  63.986  0.00  0.00     0.048 A 
HETATM   10  C   UNK     0      67.776  74.458  65.100  0.00  0.00     0.015 A 
HETATM   11  N   UNK     0      64.905  73.693  62.829  0.00  0.00    -0.318 N 
HETATM   12  C   UNK     0      65.006  74.436  65.186  0.00  0.00     0.030 A 
HETATM   13  C   UNK     0      65.523  73.316  61.639  0.00  0.00     0.249 A 
HETATM   14  C   UNK     0      63.446  73.671  62.898  0.00  0.00     0.159 C 
HETATM   15  O   UNK     0      64.937  72.951  60.620  0.00  0.00    -0.268 OA
HETATM   16  C   UNK     0      67.002  73.371  61.606  0.00  0.00     0.094 A 
HETATM   17  C   UNK     0      65.729  74.793  66.322  0.00  0.00     0.002 A 
HETATM   18  C   UNK     0      67.114  74.800  66.280  0.00  0.00     0.001 A 
ENDBRANCH   6   7
ENDBRANCH   5   6
ENDBRANCH   3   5
BRANCH   2  19
HETATM   19  C   UNK     0      72.196  73.373  65.577  0.00  0.00     0.087 C 
HETATM   20  C   UNK     0      73.259  74.449  65.325  0.00  0.00     0.045 C 
HETATM   21  C   UNK     0      72.680  75.864  65.346  0.00  0.00     0.130 C 
HETATM   22  N   UNK     0      71.895  76.088  66.564  0.00  0.00    -0.328 N 
HETATM   23  C   UNK     0      70.826  75.122  66.810  0.00  0.00     0.130 C 
HETATM   24  C   UNK     0      72.087  77.168  67.431  0.00  0.00     0.362 C 
HETATM   25  C   UNK     0      71.375  73.696  66.831  0.00  0.00     0.045 C 
HETATM   26  O   UNK     0      71.432  77.361  68.454  0.00  0.00    -0.238 OA
BRANCH  24  27
HETATM   27  O   UNK     0      73.093  78.003  67.022  0.00  0.00    -0.304 OA
BRANCH  27  28
HETATM   28  C   UNK     0      74.127  78.261  67.977  0.00  0.00     0.176 C 
HETATM   29  C   UNK     0      74.926  76.993  68.194  0.00  0.00     0.034 C 
ENDBRANCH  27  28
ENDBRANCH  24  27
ENDBRANCH   2  19
TORSDOF 6
ENDMDL
MODEL 2
REMARK VINA RESULT:      -7.7      3.143      4.390
REMARK  6 active torsions:
REMARK  status: ('A' for Active; 'I' for Inactive)
REMARK    1  A    between atoms: S_1  and  C_16 
REMARK    2  A    between atoms: S_1  and  C_17 
REMARK    3  A    between atoms: O_2  and  C_14 
REMARK    4  A    between atoms: O_2  and  C_19 
REMARK       I    between atoms: N_6  and  C_14 
REMARK    5  A    between atoms: N_7  and  C_9 
REMARK       I    between atoms: N_7  and  C_15 
REMARK    6  A    between atoms: C_15  and  C_16 
ROOT
HETATM    1  O   UNK     0      68.033  75.314  66.511  0.00  0.00    -0.273 OA
HETATM    2  N   UNK     0      69.284  73.820  65.243  0.00  0.00    -0.356 N 
HETATM    3  C   UNK     0      68.153  74.237  65.927  0.00  0.00     0.227 C 
HETATM    4  H   UNK     0      69.300  72.884  64.851  0.00  0.00     0.162 HD
ENDROOT
BRANCH   3   5
HETATM    5  C   UNK     0      67.043  73.214  65.911  0.00  0.00     0.182 C 
BRANCH   5   6
HETATM    6  S   UNK     0      66.387  73.087  64.230  0.00  0.00    -0.120 SA
BRANCH   6   7
HETATM    7  C   UNK     0      64.708  73.288  64.550  0.00  0.00     0.018 A 
HETATM    8  C   UNK     0      64.108  74.639  64.546  0.00  0.00     0.008 A 
HETATM    9  C   UNK     0      62.718  74.762  64.773  0.00  0.00     0.048 A 
HETATM   10  C   UNK     0      64.857  75.815  64.339  0.00  0.00     0.015 A 
HETATM   11  N   UNK     0      61.932  73.590  65.029  0.00  0.00    -0.318 N 
HETATM   12  C   UNK     0      62.127  76.041  64.758  0.00  0.00     0.030 A 
HETATM   13  C   UNK     0      62.495  72.318  65.075  0.00  0.00     0.249 A 
HETATM   14  C   UNK     0      60.497  73.730  65.264  0.00  0.00     0.159 C 
HETATM   15  O   UNK     0      61.879  71.277  65.310  0.00  0.00    -0.268 OA
HETATM   16  C   UNK     0      63.949  72.218  64.812  0.00  0.00     0.094 A 
HETATM   17  C   UNK     0      62.889  77.187  64.537  0.00  0.00     0.002 A 
HETATM   18  C   UNK     0      64.254  77.074  64.331  0.00  0.00     0.001 A 
ENDBRANCH   6   7
ENDBRANCH   5   6
ENDBRANCH   3   5
BRANCH   2  19
HETATM   19  C   UNK     0      70.482  74.620  65.133  0.00  0.00     0.087 C 
HETATM   20  C   UNK     0      71.362  74.484  66.383  0.00  0.00     0.045 C 
HETATM   21  C   UNK     0      72.080  73.136  66.451  0.00  0.00     0.130 C 
HETATM   22  N   UNK     0      72.792  72.860  65.199  0.00  0.00    -0.328 N 
HETATM   23  C   UNK     0      71.976  72.914  63.988  0.00  0.00     0.130 C 
HETATM   24  C   UNK     0      74.144  72.512  65.128  0.00  0.00     0.362 C 
HETATM   25  C   UNK     0      71.269  74.263  63.867  0.00  0.00     0.045 C 
HETATM   26  O   UNK     0      74.745  72.279  64.081  0.00  0.00    -0.238 OA
BRANCH  24  27
HETATM   27  O   UNK     0      74.741  72.456  66.360  0.00  0.00    -0.304 OA
BRANCH  27  28
HETATM   28  C   UNK     0      76.008  71.790  66.418  0.00  0.00     0.176 C 
HETATM   29  C   UNK     0      75.871  70.543  67.265  0.00  0.00     0.034 C 
ENDBRANCH  27  28
ENDBRANCH  24  27
ENDBRANCH   2  19
TORSDOF 6
ENDMDL
MODEL 3
REMARK VINA RESULT:      -7.5      3.205      4.870
REMARK  6 active torsions:
REMARK  status: ('A' for Active; 'I' for Inactive)
REMARK    1  A    between atoms: S_1  and  C_16 
REMARK    2  A    between atoms: S_1  and  C_17 
REMARK    3  A    between atoms: O_2  and  C_14 
REMARK    4  A    between atoms: O_2  and  C_19 
REMARK       I    between atoms: N_6  and  C_14 
REMARK    5  A    between atoms: N_7  and  C_9 
REMARK       I    between atoms: N_7  and  C_15 
REMARK    6  A    between atoms: C_15  and  C_16 
ROOT
HETATM    1  O   UNK     0      66.216  72.733  61.940  0.00  0.00    -0.273 OA
HETATM    2  N   UNK     0      67.892  73.049  63.520  0.00  0.00    -0.356 N 
HETATM    3  C   UNK     0      66.580  72.883  63.106  0.00  0.00     0.227 C 
HETATM    4  H   UNK     0      68.076  73.231  64.501  0.00  0.00     0.162 HD
ENDROOT
BRANCH   3   5
HETATM    5  C   UNK     0      65.592  72.920  64.248  0.00  0.00     0.182 C 
BRANCH   5   6
HETATM    6  S   UNK     0      65.246  74.644  64.668  0.00  0.00    -0.120 SA
BRANCH   6   7
HETATM    7  C   UNK     0      63.534  74.572  64.833  0.00  0.00     0.018 A 
HETATM    8  C   UNK     0      62.707  75.753  64.508  0.00  0.00     0.008 A 
HETATM    9  C   UNK     0      61.302  75.644  64.617  0.00  0.00     0.048 A 
HETATM   10  C   UNK     0      63.252  76.990  64.108  0.00  0.00     0.015 A 
HETATM   11  N   UNK     0      60.715  74.413  65.062  0.00  0.00    -0.318 N 
HETATM   12  C   UNK     0      60.497  76.756  64.297  0.00  0.00     0.030 A 
HETATM   13  C   UNK     0      61.488  73.309  65.409  0.00  0.00     0.249 A 
HETATM   14  C   UNK     0      59.261  74.314  65.172  0.00  0.00     0.159 C 
HETATM   15  O   UNK     0      61.047  72.233  65.816  0.00  0.00    -0.268 OA
HETATM   16  C   UNK     0      62.955  73.445  65.264  0.00  0.00     0.094 A 
HETATM   17  C   UNK     0      61.061  77.963  63.890  0.00  0.00     0.002 A 
HETATM   18  C   UNK     0      62.438  78.081  63.798  0.00  0.00     0.001 A 
ENDBRANCH   6   7
ENDBRANCH   5   6
ENDBRANCH   3   5
BRANCH   2  19
HETATM   19  C   UNK     0      69.013  73.067  62.608  0.00  0.00     0.087 C 
HETATM   20  C   UNK     0      69.794  74.384  62.707  0.00  0.00     0.045 C 
HETATM   21  C   UNK     0      70.631  74.476  63.983  0.00  0.00     0.130 C 
HETATM   22  N   UNK     0      71.467  73.283  64.147  0.00  0.00    -0.328 N 
HETATM   23  C   UNK     0      70.754  72.007  64.124  0.00  0.00     0.130 C 
HETATM   24  C   UNK     0      72.848  73.319  64.364  0.00  0.00     0.362 C 
HETATM   25  C   UNK     0      69.933  71.863  62.843  0.00  0.00     0.045 C 
HETATM   26  O   UNK     0      73.554  72.321  64.501  0.00  0.00    -0.238 OA
BRANCH  24  27
HETATM   27  O   UNK     0      73.343  74.595  64.409  0.00  0.00    -0.304 OA
BRANCH  27  28
HETATM   28  C   UNK     0      73.974  74.985  65.633  0.00  0.00     0.176 C 
HETATM   29  C   UNK     0      73.174  76.105  66.265  0.00  0.00     0.034 C 
ENDBRANCH  27  28
ENDBRANCH  24  27
ENDBRANCH   2  19
TORSDOF 6
ENDMDL
MODEL 4
REMARK VINA RESULT:      -7.4      2.521      3.501
REMARK  6 active torsions:
REMARK  status: ('A' for Active; 'I' for Inactive)
REMARK    1  A    between atoms: S_1  and  C_16 
REMARK    2  A    between atoms: S_1  and  C_17 
REMARK    3  A    between atoms: O_2  and  C_14 
REMARK    4  A    between atoms: O_2  and  C_19 
REMARK       I    between atoms: N_6  and  C_14 
REMARK    5  A    between atoms: N_7  and  C_9 
REMARK       I    between atoms: N_7  and  C_15 
REMARK    6  A    between atoms: C_15  and  C_16 
ROOT
HETATM    1  O   UNK     0      69.196  71.826  63.071  0.00  0.00    -0.273 OA
HETATM    2  N   UNK     0      69.619  72.609  65.218  0.00  0.00    -0.356 N 
HETATM    3  C   UNK     0      68.810  72.135  64.197  0.00  0.00     0.227 C 
HETATM    4  H   UNK     0      69.187  72.897  66.090  0.00  0.00     0.162 HD
ENDROOT
BRANCH   3   5
HETATM    5  C   UNK     0      67.355  72.043  64.592  0.00  0.00     0.182 C 
BRANCH   5   6
HETATM    6  S   UNK     0      66.352  72.860  63.328  0.00  0.00    -0.120 SA
BRANCH   6   7
HETATM    7  C   UNK     0      65.333  73.818  64.330  0.00  0.00     0.018 A 
HETATM    8  C   UNK     0      63.996  73.323  64.720  0.00  0.00     0.008 A 
HETATM    9  C   UNK     0      63.203  74.119  65.577  0.00  0.00     0.048 A 
HETATM   10  C   UNK     0      63.466  72.097  64.267  0.00  0.00     0.015 A 
HETATM   11  N   UNK     0      63.694  75.391  66.023  0.00  0.00    -0.318 N 
HETATM   12  C   UNK     0      61.932  73.655  65.970  0.00  0.00     0.030 A 
HETATM   13  C   UNK     0      64.935  75.884  65.629  0.00  0.00     0.249 A 
HETATM   14  C   UNK     0      62.864  76.206  66.907  0.00  0.00     0.159 C 
HETATM   15  O   UNK     0      65.403  76.974  65.960  0.00  0.00    -0.268 OA
HETATM   16  C   UNK     0      65.752  75.018  64.749  0.00  0.00     0.094 A 
HETATM   17  C   UNK     0      61.437  72.433  65.519  0.00  0.00     0.002 A 
HETATM   18  C   UNK     0      62.203  71.656  64.665  0.00  0.00     0.001 A 
ENDBRANCH   6   7
ENDBRANCH   5   6
ENDBRANCH   3   5
BRANCH   2  19
HETATM   19  C   UNK     0      71.044  72.799  65.075  0.00  0.00     0.087 C 
HETATM   20  C   UNK     0      71.367  73.758  63.922  0.00  0.00     0.045 C 
HETATM   21  C   UNK     0      71.050  75.215  64.265  0.00  0.00     0.130 C 
HETATM   22  N   UNK     0      71.666  75.598  65.539  0.00  0.00    -0.328 N 
HETATM   23  C   UNK     0      71.332  74.747  66.679  0.00  0.00     0.130 C 
HETATM   24  C   UNK     0      72.481  76.721  65.707  0.00  0.00     0.362 C 
HETATM   25  C   UNK     0      71.670  73.285  66.387  0.00  0.00     0.045 C 
HETATM   26  O   UNK     0      73.001  77.047  66.773  0.00  0.00    -0.238 OA
BRANCH  24  27
HETATM   27  O   UNK     0      72.646  77.434  64.549  0.00  0.00    -0.304 OA
BRANCH  27  28
HETATM   28  C   UNK     0      73.971  77.902  64.278  0.00  0.00     0.176 C 
HETATM   29  C   UNK     0      74.726  76.833  63.517  0.00  0.00     0.034 C 
ENDBRANCH  27  28
ENDBRANCH  24  27
ENDBRANCH   2  19
TORSDOF 6
ENDMDL
MODEL 5
REMARK VINA RESULT:      -7.4      3.051      9.183
REMARK  6 active torsions:
REMARK  status: ('A' for Active; 'I' for Inactive)
REMARK    1  A    between atoms: S_1  and  C_16 
REMARK    2  A    between atoms: S_1  and  C_17 
REMARK    3  A    between atoms: O_2  and  C_14 
REMARK    4  A    between atoms: O_2  and  C_19 
REMARK       I    between atoms: N_6  and  C_14 
REMARK    5  A    between atoms: N_7  and  C_9 
REMARK       I    between atoms: N_7  and  C_15 
REMARK    6  A    between atoms: C_15  and  C_16 
ROOT
HETATM    1  O   UNK     0      70.384  75.408  65.863  0.00  0.00    -0.273 OA
HETATM    2  N   UNK     0      69.094  73.577  65.241  0.00  0.00    -0.356 N 
HETATM    3  C   UNK     0      70.212  74.192  65.782  0.00  0.00     0.227 C 
HETATM    4  H   UNK     0      69.083  72.565  65.164  0.00  0.00     0.162 HD
ENDROOT
BRANCH   3   5
HETATM    5  C   UNK     0      71.250  73.208  66.266  0.00  0.00     0.182 C 
BRANCH   5   6
HETATM    6  S   UNK     0      72.484  72.970  64.965  0.00  0.00    -0.120 SA
BRANCH   6   7
HETATM    7  C   UNK     0      73.814  73.812  65.658  0.00  0.00     0.018 A 
HETATM    8  C   UNK     0      74.904  73.063  66.319  0.00  0.00     0.008 A 
HETATM    9  C   UNK     0      76.001  73.786  66.842  0.00  0.00     0.048 A 
HETATM   10  C   UNK     0      74.898  71.661  66.466  0.00  0.00     0.015 A 
HETATM   11  N   UNK     0      76.021  75.217  66.748  0.00  0.00    -0.318 N 
HETATM   12  C   UNK     0      77.055  73.086  67.462  0.00  0.00     0.030 A 
HETATM   13  C   UNK     0      74.980  75.934  66.164  0.00  0.00     0.249 A 
HETATM   14  C   UNK     0      77.159  75.952  67.294  0.00  0.00     0.159 C 
HETATM   15  O   UNK     0      74.928  77.161  66.070  0.00  0.00    -0.268 OA
HETATM   16  C   UNK     0      73.856  75.148  65.605  0.00  0.00     0.094 A 
HETATM   17  C   UNK     0      77.030  71.698  67.581  0.00  0.00     0.002 A 
HETATM   18  C   UNK     0      75.950  70.986  67.086  0.00  0.00     0.001 A 
ENDBRANCH   6   7
ENDBRANCH   5   6
ENDBRANCH   3   5
BRANCH   2  19
HETATM   19  C   UNK     0      67.973  74.310  64.698  0.00  0.00     0.087 C 
HETATM   20  C   UNK     0      67.178  73.457  63.700  0.00  0.00     0.045 C 
HETATM   21  C   UNK     0      66.340  72.378  64.388  0.00  0.00     0.130 C 
HETATM   22  N   UNK     0      65.516  72.957  65.453  0.00  0.00    -0.328 N 
HETATM   23  C   UNK     0      66.243  73.724  66.463  0.00  0.00     0.130 C 
HETATM   24  C   UNK     0      64.135  72.769  65.564  0.00  0.00     0.362 C 
HETATM   25  C   UNK     0      67.065  74.837  65.815  0.00  0.00     0.045 C 
HETATM   26  O   UNK     0      63.439  73.252  66.455  0.00  0.00    -0.238 OA
BRANCH  24  27
HETATM   27  O   UNK     0      63.627  71.981  64.565  0.00  0.00    -0.304 OA
BRANCH  27  28
HETATM   28  C   UNK     0      62.201  71.962  64.440  0.00  0.00     0.176 C 
HETATM   29  C   UNK     0      61.778  70.649  63.815  0.00  0.00     0.034 C 
ENDBRANCH  27  28
ENDBRANCH  24  27
ENDBRANCH   2  19
TORSDOF 6
ENDMDL
MODEL 6
REMARK VINA RESULT:      -7.3      3.845      8.352
REMARK  6 active torsions:
REMARK  status: ('A' for Active; 'I' for Inactive)
REMARK    1  A    between atoms: S_1  and  C_16 
REMARK    2  A    between atoms: S_1  and  C_17 
REMARK    3  A    between atoms: O_2  and  C_14 
REMARK    4  A    between atoms: O_2  and  C_19 
REMARK       I    between atoms: N_6  and  C_14 
REMARK    5  A    between atoms: N_7  and  C_9 
REMARK       I    between atoms: N_7  and  C_15 
REMARK    6  A    between atoms: C_15  and  C_16 
ROOT
HETATM    1  O   UNK     0      64.508  74.278  68.923  0.00  0.00    -0.273 OA
HETATM    2  N   UNK     0      63.913  74.644  66.706  0.00  0.00    -0.356 N 
HETATM    3  C   UNK     0      64.745  74.194  67.719  0.00  0.00     0.227 C 
HETATM    4  H   UNK     0      64.236  74.584  65.746  0.00  0.00     0.162 HD
ENDROOT
BRANCH   3   5
HETATM    5  C   UNK     0      66.026  73.584  67.202  0.00  0.00     0.182 C 
BRANCH   5   6
HETATM    6  S   UNK     0      67.103  74.905  66.596  0.00  0.00    -0.120 SA
BRANCH   6   7
HETATM    7  C   UNK     0      68.013  74.032  65.425  0.00  0.00     0.018 A 
HETATM    8  C   UNK     0      67.605  74.046  64.005  0.00  0.00     0.008 A 
HETATM    9  C   UNK     0      68.400  73.352  63.066  0.00  0.00     0.048 A 
HETATM   10  C   UNK     0      66.450  74.710  63.541  0.00  0.00     0.015 A 
HETATM   11  N   UNK     0      69.559  72.631  63.508  0.00  0.00    -0.318 N 
HETATM   12  C   UNK     0      68.033  73.367  61.705  0.00  0.00     0.030 A 
HETATM   13  C   UNK     0      69.929  72.578  64.849  0.00  0.00     0.249 A 
HETATM   14  C   UNK     0      70.372  71.915  62.528  0.00  0.00     0.159 C 
HETATM   15  O   UNK     0      70.898  71.962  65.294  0.00  0.00    -0.268 OA
HETATM   16  C   UNK     0      69.089  73.334  65.806  0.00  0.00     0.094 A 
HETATM   17  C   UNK     0      66.894  74.042  61.271  0.00  0.00     0.002 A 
HETATM   18  C   UNK     0      66.101  74.711  62.190  0.00  0.00     0.001 A 
ENDBRANCH   6   7
ENDBRANCH   5   6
ENDBRANCH   3   5
BRANCH   2  19
HETATM   19  C   UNK     0      62.639  75.280  66.953  0.00  0.00     0.087 C 
HETATM   20  C   UNK     0      62.746  76.807  66.849  0.00  0.00     0.045 C 
HETATM   21  C   UNK     0      62.883  77.289  65.404  0.00  0.00     0.130 C 
HETATM   22  N   UNK     0      61.831  76.715  64.560  0.00  0.00    -0.328 N 
HETATM   23  C   UNK     0      61.736  75.257  64.579  0.00  0.00     0.130 C 
HETATM   24  C   UNK     0      60.989  77.469  63.738  0.00  0.00     0.362 C 
HETATM   25  C   UNK     0      61.562  74.739  66.006  0.00  0.00     0.045 C 
HETATM   26  O   UNK     0      60.104  76.993  63.028  0.00  0.00    -0.238 OA
BRANCH  24  27
HETATM   27  O   UNK     0      61.250  78.813  63.803  0.00  0.00    -0.304 OA
BRANCH  27  28
HETATM   28  C   UNK     0      61.522  79.464  62.558  0.00  0.00     0.176 C 
HETATM   29  C   UNK     0      62.402  80.669  62.814  0.00  0.00     0.034 C 
ENDBRANCH  27  28
ENDBRANCH  24  27
ENDBRANCH   2  19
TORSDOF 6
ENDMDL
MODEL 7
REMARK VINA RESULT:      -7.3      3.240      7.751
REMARK  6 active torsions:
REMARK  status: ('A' for Active; 'I' for Inactive)
REMARK    1  A    between atoms: S_1  and  C_16 
REMARK    2  A    between atoms: S_1  and  C_17 
REMARK    3  A    between atoms: O_2  and  C_14 
REMARK    4  A    between atoms: O_2  and  C_19 
REMARK       I    between atoms: N_6  and  C_14 
REMARK    5  A    between atoms: N_7  and  C_9 
REMARK       I    between atoms: N_7  and  C_15 
REMARK    6  A    between atoms: C_15  and  C_16 
ROOT
HETATM    1  O   UNK     0      66.857  73.017  67.374  0.00  0.00    -0.273 OA
HETATM    2  N   UNK     0      65.944  74.162  65.569  0.00  0.00    -0.356 N 
HETATM    3  C   UNK     0      66.735  73.191  66.162  0.00  0.00     0.227 C 
HETATM    4  H   UNK     0      65.967  74.261  64.559  0.00  0.00     0.162 HD
ENDROOT
BRANCH   3   5
HETATM    5  C   UNK     0      67.479  72.342  65.159  0.00  0.00     0.182 C 
BRANCH   5   6
HETATM    6  S   UNK     0      67.949  73.374  63.750  0.00  0.00    -0.120 SA
BRANCH   6   7
HETATM    7  C   UNK     0      69.659  73.191  63.804  0.00  0.00     0.018 A 
HETATM    8  C   UNK     0      70.450  73.901  64.831  0.00  0.00     0.008 A 
HETATM    9  C   UNK     0      71.847  73.695  64.871  0.00  0.00     0.048 A 
HETATM   10  C   UNK     0      69.879  74.786  65.769  0.00  0.00     0.015 A 
HETATM   11  N   UNK     0      72.468  72.834  63.905  0.00  0.00    -0.318 N 
HETATM   12  C   UNK     0      72.615  74.353  65.853  0.00  0.00     0.030 A 
HETATM   13  C   UNK     0      71.737  72.193  62.909  0.00  0.00     0.249 A 
HETATM   14  C   UNK     0      73.914  72.630  63.955  0.00  0.00     0.159 C 
HETATM   15  O   UNK     0      72.212  71.459  62.041  0.00  0.00    -0.268 OA
HETATM   16  C   UNK     0      70.272  72.410  62.907  0.00  0.00     0.094 A 
HETATM   17  C   UNK     0      72.023  75.212  66.777  0.00  0.00     0.002 A 
HETATM   18  C   UNK     0      70.656  75.431  66.733  0.00  0.00     0.001 A 
ENDBRANCH   6   7
ENDBRANCH   5   6
ENDBRANCH   3   5
BRANCH   2  19
HETATM   19  C   UNK     0      65.151  75.106  66.322  0.00  0.00     0.087 C 
HETATM   20  C   UNK     0      65.352  76.538  65.812  0.00  0.00     0.045 C 
HETATM   21  C   UNK     0      64.658  76.787  64.472  0.00  0.00     0.130 C 
HETATM   22  N   UNK     0      63.253  76.375  64.528  0.00  0.00    -0.328 N 
HETATM   23  C   UNK     0      63.019  74.995  64.946  0.00  0.00     0.130 C 
HETATM   24  C   UNK     0      62.181  77.197  64.163  0.00  0.00     0.362 C 
HETATM   25  C   UNK     0      63.668  74.718  66.302  0.00  0.00     0.045 C 
HETATM   26  O   UNK     0      61.000  76.856  64.207  0.00  0.00    -0.238 OA
BRANCH  24  27
HETATM   27  O   UNK     0      62.584  78.437  63.745  0.00  0.00    -0.304 OA
BRANCH  27  28
HETATM   28  C   UNK     0      61.634  79.186  62.979  0.00  0.00     0.176 C 
HETATM   29  C   UNK     0      62.261  80.499  62.563  0.00  0.00     0.034 C 
ENDBRANCH  27  28
ENDBRANCH  24  27
ENDBRANCH   2  19
TORSDOF 6
ENDMDL
MODEL 8
REMARK VINA RESULT:      -7.3      2.036      7.954
REMARK  6 active torsions:
REMARK  status: ('A' for Active; 'I' for Inactive)
REMARK    1  A    between atoms: S_1  and  C_16 
REMARK    2  A    between atoms: S_1  and  C_17 
REMARK    3  A    between atoms: O_2  and  C_14 
REMARK    4  A    between atoms: O_2  and  C_19 
REMARK       I    between atoms: N_6  and  C_14 
REMARK    5  A    between atoms: N_7  and  C_9 
REMARK       I    between atoms: N_7  and  C_15 
REMARK    6  A    between atoms: C_15  and  C_16 
ROOT
HETATM    1  O   UNK     0      71.048  71.156  65.199  0.00  0.00    -0.273 OA
HETATM    2  N   UNK     0      69.884  73.077  64.600  0.00  0.00    -0.356 N 
HETATM    3  C   UNK     0      71.023  72.354  64.918  0.00  0.00     0.227 C 
HETATM    4  H   UNK     0      69.968  74.077  64.448  0.00  0.00     0.162 HD
ENDROOT
BRANCH   3   5
HETATM    5  C   UNK     0      72.278  73.194  64.908  0.00  0.00     0.182 C 
BRANCH   5   6
HETATM    6  S   UNK     0      71.830  74.912  64.567  0.00  0.00    -0.120 SA
BRANCH   6   7
HETATM    7  C   UNK     0      72.905  75.718  65.642  0.00  0.00     0.018 A 
HETATM    8  C   UNK     0      72.394  76.317  66.893  0.00  0.00     0.008 A 
HETATM    9  C   UNK     0      73.313  76.936  67.771  0.00  0.00     0.048 A 
HETATM   10  C   UNK     0      71.030  76.313  67.249  0.00  0.00     0.015 A 
HETATM   11  N   UNK     0      74.703  76.996  67.421  0.00  0.00    -0.318 N 
HETATM   12  C   UNK     0      72.845  77.500  68.975  0.00  0.00     0.030 A 
HETATM   13  C   UNK     0      75.188  76.470  66.227  0.00  0.00     0.249 A 
HETATM   14  C   UNK     0      75.642  77.640  68.336  0.00  0.00     0.159 C 
HETATM   15  O   UNK     0      76.363  76.508  65.860  0.00  0.00    -0.268 OA
HETATM   16  C   UNK     0      74.205  75.809  65.338  0.00  0.00     0.094 A 
HETATM   17  C   UNK     0      71.492  77.469  69.309  0.00  0.00     0.002 A 
HETATM   18  C   UNK     0      70.585  76.879  68.444  0.00  0.00     0.001 A 
ENDBRANCH   6   7
ENDBRANCH   5   6
ENDBRANCH   3   5
BRANCH   2  19
HETATM   19  C   UNK     0      68.563  72.495  64.560  0.00  0.00     0.087 C 
HETATM   20  C   UNK     0      67.563  73.320  65.382  0.00  0.00     0.045 C 
HETATM   21  C   UNK     0      67.177  74.630  64.694  0.00  0.00     0.130 C 
HETATM   22  N   UNK     0      66.745  74.387  63.315  0.00  0.00    -0.328 N 
HETATM   23  C   UNK     0      67.696  73.661  62.476  0.00  0.00     0.130 C 
HETATM   24  C   UNK     0      65.537  74.847  62.781  0.00  0.00     0.362 C 
HETATM   25  C   UNK     0      68.078  72.326  63.116  0.00  0.00     0.045 C 
HETATM   26  O   UNK     0      65.169  74.647  61.625  0.00  0.00    -0.238 OA
BRANCH  24  27
HETATM   27  O   UNK     0      64.793  75.554  63.689  0.00  0.00    -0.304 OA
BRANCH  27  28
HETATM   28  C   UNK     0      63.445  75.112  63.882  0.00  0.00     0.176 C 
HETATM   29  C   UNK     0      63.442  73.949  64.851  0.00  0.00     0.034 C 
ENDBRANCH  27  28
ENDBRANCH  24  27
ENDBRANCH   2  19
TORSDOF 6
ENDMDL
MODEL 9
REMARK VINA RESULT:      -7.2     23.531     26.084
REMARK  6 active torsions:
REMARK  status: ('A' for Active; 'I' for Inactive)
REMARK    1  A    between atoms: S_1  and  C_16 
REMARK    2  A    between atoms: S_1  and  C_17 
REMARK    3  A    between atoms: O_2  and  C_14 
REMARK    4  A    between atoms: O_2  and  C_19 
REMARK       I    between atoms: N_6  and  C_14 
REMARK    5  A    between atoms: N_7  and  C_9 
REMARK       I    between atoms: N_7  and  C_15 
REMARK    6  A    between atoms: C_15  and  C_16 
ROOT
HETATM    1  O   UNK     0      55.506  57.195  64.300  0.00  0.00    -0.273 OA
HETATM    2  N   UNK     0      55.486  54.895  64.637  0.00  0.00    -0.356 N 
HETATM    3  C   UNK     0      55.443  56.046  63.865  0.00  0.00     0.227 C 
HETATM    4  H   UNK     0      55.361  53.997  64.182  0.00  0.00     0.162 HD
ENDROOT
BRANCH   3   5
HETATM    5  C   UNK     0      55.289  55.761  62.390  0.00  0.00     0.182 C 
BRANCH   5   6
HETATM    6  S   UNK     0      54.424  54.187  62.184  0.00  0.00    -0.120 SA
BRANCH   6   7
HETATM    7  C   UNK     0      54.647  53.944  60.495  0.00  0.00     0.018 A 
HETATM    8  C   UNK     0      54.892  52.586  59.966  0.00  0.00     0.008 A 
HETATM    9  C   UNK     0      55.030  52.419  58.569  0.00  0.00     0.048 A 
HETATM   10  C   UNK     0      55.006  51.446  60.789  0.00  0.00     0.015 A 
HETATM   11  N   UNK     0      54.961  53.562  57.705  0.00  0.00    -0.318 N 
HETATM   12  C   UNK     0      55.249  51.129  58.047  0.00  0.00     0.030 A 
HETATM   13  C   UNK     0      54.773  54.850  58.197  0.00  0.00     0.249 A 
HETATM   14  C   UNK     0      55.108  53.377  56.263  0.00  0.00     0.159 C 
HETATM   15  O   UNK     0      54.725  55.872  57.511  0.00  0.00    -0.268 OA
HETATM   16  C   UNK     0      54.608  54.991  59.662  0.00  0.00     0.094 A 
HETATM   17  C   UNK     0      55.344  50.017  58.882  0.00  0.00     0.002 A 
HETATM   18  C   UNK     0      55.226  50.177  60.253  0.00  0.00     0.001 A 
ENDBRANCH   6   7
ENDBRANCH   5   6
ENDBRANCH   3   5
BRANCH   2  19
HETATM   19  C   UNK     0      55.613  54.912  66.076  0.00  0.00     0.087 C 
HETATM   20  C   UNK     0      54.610  53.958  66.737  0.00  0.00     0.045 C 
HETATM   21  C   UNK     0      54.996  52.488  66.564  0.00  0.00     0.130 C 
HETATM   22  N   UNK     0      56.383  52.261  66.979  0.00  0.00    -0.328 N 
HETATM   23  C   UNK     0      57.381  53.105  66.324  0.00  0.00     0.130 C 
HETATM   24  C   UNK     0      56.776  51.279  67.894  0.00  0.00     0.362 C 
HETATM   25  C   UNK     0      57.048  54.585  66.507  0.00  0.00     0.045 C 
HETATM   26  O   UNK     0      57.939  51.084  68.245  0.00  0.00    -0.238 OA
BRANCH  24  27
HETATM   27  O   UNK     0      55.721  50.545  68.367  0.00  0.00    -0.304 OA
BRANCH  27  28
HETATM   28  C   UNK     0      55.582  50.486  69.791  0.00  0.00     0.176 C 
HETATM   29  C   UNK     0      55.180  51.852  70.305  0.00  0.00     0.034 C 
ENDBRANCH  27  28
ENDBRANCH  24  27
ENDBRANCH   2  19
TORSDOF 6
ENDMDL
