MODEL 1
REMARK VINA RESULT:      -7.3      0.000      0.000
REMARK  8 active torsions:
REMARK  status: ('A' for Active; 'I' for Inactive)
REMARK    1  A    between atoms: S_1  and  N_7 
REMARK    2  A    between atoms: S_1  and  C_15 
REMARK    3  A    between atoms: O_5  and  C_19 
REMARK    4  A    between atoms: O_5  and  C_25 
REMARK    5  A    between atoms: N_6  and  C_8 
REMARK    6  A    between atoms: N_7  and  C_14 
REMARK    7  A    between atoms: C_8  and  C_11 
REMARK    8  A    between atoms: C_11  and  C_14 
ROOT
HETATM    1  S   UNK     0      67.978  73.967  65.838  0.00  0.00     0.259 S 
HETATM    2  O   UNK     0      67.957  75.280  66.459  0.00  0.00    -0.201 OA
HETATM    3  O   UNK     0      68.443  72.817  66.594  0.00  0.00    -0.201 OA
ENDROOT
BRANCH   1   4
HETATM    4  N   UNK     0      68.854  74.060  64.376  0.00  0.00    -0.315 N 
HETATM    5  H   UNK     0      69.036  74.985  63.967  0.00  0.00     0.172 HD
BRANCH   4   6
HETATM    6  C   UNK     0      69.802  72.994  64.017  0.00  0.00     0.134 C 
BRANCH   6   7
HETATM    7  C   UNK     0      71.007  73.578  63.289  0.00  0.00     0.050 C 
BRANCH   7   8
HETATM    8  C   UNK     0      72.292  73.480  64.113  0.00  0.00     0.274 C 
BRANCH   8   9
HETATM    9  N   UNK     0      72.601  74.772  64.723  0.00  0.00     0.092 N 
HETATM   10  C   UNK     0      72.039  74.856  66.078  0.00  0.00     0.298 C 
HETATM   11  C   UNK     0      72.363  76.216  66.690  0.00  0.00     0.198 C 
HETATM   12  O   UNK     0      71.848  77.266  65.870  0.00  0.00    -0.388 OA
HETATM   13  C   UNK     0      72.414  77.210  64.560  0.00  0.00     0.198 C 
HETATM   14  C   UNK     0      72.091  75.874  63.897  0.00  0.00     0.298 C 
ENDBRANCH   8   9
ENDBRANCH   7   8
ENDBRANCH   6   7
ENDBRANCH   4   6
ENDBRANCH   1   4
BRANCH   1  15
HETATM   15  C   UNK     0      66.355  73.598  65.270  0.00  0.00     0.090 A 
HETATM   16  C   UNK     0      65.257  73.471  66.135  0.00  0.00     0.000 A 
HETATM   17  C   UNK     0      63.983  73.170  65.597  0.00  0.00     0.009 A 
HETATM   18  C   UNK     0      65.394  73.637  67.523  0.00  0.00     0.014 A 
HETATM   19  C   UNK     0      63.846  73.004  64.209  0.00  0.00     0.079 A 
HETATM   20  C   UNK     0      62.884  73.044  66.463  0.00  0.00     0.015 A 
HETATM   21  C   UNK     0      64.949  73.132  63.365  0.00  0.00     0.039 A 
HETATM   22  C   UNK     0      66.201  73.429  63.893  0.00  0.00     0.029 A 
HETATM   23  C   UNK     0      63.039  73.212  67.839  0.00  0.00     0.001 A 
HETATM   24  C   UNK     0      64.291  73.508  68.368  0.00  0.00     0.001 A 
BRANCH  19  25
HETATM   25  O   UNK     0      62.638  72.711  63.644  0.00  0.00    -0.351 OA
BRANCH  25  26
HETATM   26  C   UNK     0      62.520  71.450  62.993  0.00  0.00     0.171 C 
HETATM   27  C   UNK     0      61.667  70.533  63.844  0.00  0.00     0.034 C 
ENDBRANCH  25  26
ENDBRANCH  19  25
ENDBRANCH   1  15
TORSDOF 8
ENDMDL
MODEL 2
REMARK VINA RESULT:      -7.2      2.782      3.861
REMARK  8 active torsions:
REMARK  status: ('A' for Active; 'I' for Inactive)
REMARK    1  A    between atoms: S_1  and  N_7 
REMARK    2  A    between atoms: S_1  and  C_15 
REMARK    3  A    between atoms: O_5  and  C_19 
REMARK    4  A    between atoms: O_5  and  C_25 
REMARK    5  A    between atoms: N_6  and  C_8 
REMARK    6  A    between atoms: N_7  and  C_14 
REMARK    7  A    between atoms: C_8  and  C_11 
REMARK    8  A    between atoms: C_11  and  C_14 
ROOT
HETATM    1  S   UNK     0      66.266  73.601  66.684  0.00  0.00     0.259 S 
HETATM    2  O   UNK     0      67.509  74.347  66.580  0.00  0.00    -0.201 OA
HETATM    3  O   UNK     0      65.872  73.029  67.961  0.00  0.00    -0.201 OA
ENDROOT
BRANCH   1   4
HETATM    4  N   UNK     0      66.256  72.372  65.500  0.00  0.00    -0.315 N 
HETATM    5  H   UNK     0      65.840  71.462  65.737  0.00  0.00     0.172 HD
BRANCH   4   6
HETATM    6  C   UNK     0      66.276  72.724  64.073  0.00  0.00     0.134 C 
BRANCH   6   7
HETATM    7  C   UNK     0      67.599  72.306  63.441  0.00  0.00     0.050 C 
BRANCH   7   8
HETATM    8  C   UNK     0      68.458  73.505  63.036  0.00  0.00     0.274 C 
BRANCH   8   9
HETATM    9  N   UNK     0      69.657  73.572  63.871  0.00  0.00     0.092 N 
HETATM   10  C   UNK     0      70.756  74.232  63.153  0.00  0.00     0.298 C 
HETATM   11  C   UNK     0      71.998  74.281  64.037  0.00  0.00     0.198 C 
HETATM   12  O   UNK     0      72.380  72.962  64.432  0.00  0.00    -0.388 OA
HETATM   13  C   UNK     0      71.328  72.325  65.159  0.00  0.00     0.198 C 
HETATM   14  C   UNK     0      70.070  72.230  64.300  0.00  0.00     0.298 C 
ENDBRANCH   8   9
ENDBRANCH   7   8
ENDBRANCH   6   7
ENDBRANCH   4   6
ENDBRANCH   1   4
BRANCH   1  15
HETATM   15  C   UNK     0      64.952  74.638  66.148  0.00  0.00     0.090 A 
HETATM   16  C   UNK     0      63.636  74.176  65.986  0.00  0.00     0.000 A 
HETATM   17  C   UNK     0      62.635  75.076  65.548  0.00  0.00     0.009 A 
HETATM   18  C   UNK     0      63.290  72.841  66.250  0.00  0.00     0.014 A 
HETATM   19  C   UNK     0      62.981  76.411  65.285  0.00  0.00     0.079 A 
HETATM   20  C   UNK     0      61.318  74.614  65.387  0.00  0.00     0.015 A 
HETATM   21  C   UNK     0      64.293  76.853  65.450  0.00  0.00     0.039 A 
HETATM   22  C   UNK     0      65.277  75.968  65.881  0.00  0.00     0.029 A 
HETATM   23  C   UNK     0      60.993  73.283  65.654  0.00  0.00     0.001 A 
HETATM   24  C   UNK     0      61.977  72.399  66.084  0.00  0.00     0.001 A 
BRANCH  19  25
HETATM   25  O   UNK     0      62.050  77.316  64.860  0.00  0.00    -0.351 OA
BRANCH  25  26
HETATM   26  C   UNK     0      62.415  78.149  63.763  0.00  0.00     0.171 C 
HETATM   27  C   UNK     0      61.160  78.719  63.137  0.00  0.00     0.034 C 
ENDBRANCH  25  26
ENDBRANCH  19  25
ENDBRANCH   1  15
TORSDOF 8
ENDMDL
MODEL 3
REMARK VINA RESULT:      -7.2      2.653      4.435
REMARK  8 active torsions:
REMARK  status: ('A' for Active; 'I' for Inactive)
REMARK    1  A    between atoms: S_1  and  N_7 
REMARK    2  A    between atoms: S_1  and  C_15 
REMARK    3  A    between atoms: O_5  and  C_19 
REMARK    4  A    between atoms: O_5  and  C_25 
REMARK    5  A    between atoms: N_6  and  C_8 
REMARK    6  A    between atoms: N_7  and  C_14 
REMARK    7  A    between atoms: C_8  and  C_11 
REMARK    8  A    between atoms: C_11  and  C_14 
ROOT
HETATM    1  S   UNK     0      65.414  73.603  61.299  0.00  0.00     0.259 S 
HETATM    2  O   UNK     0      64.644  72.535  60.686  0.00  0.00    -0.201 OA
HETATM    3  O   UNK     0      65.556  74.877  60.614  0.00  0.00    -0.201 OA
ENDROOT
BRANCH   1   4
HETATM    4  N   UNK     0      66.966  73.012  61.693  0.00  0.00    -0.315 N 
HETATM    5  H   UNK     0      67.106  71.996  61.755  0.00  0.00     0.172 HD
BRANCH   4   6
HETATM    6  C   UNK     0      68.159  73.814  61.386  0.00  0.00     0.134 C 
BRANCH   6   7
HETATM    7  C   UNK     0      69.304  73.446  62.324  0.00  0.00     0.050 C 
BRANCH   7   8
HETATM    8  C   UNK     0      68.969  72.247  63.212  0.00  0.00     0.274 C 
BRANCH   8   9
HETATM    9  N   UNK     0      68.820  72.673  64.603  0.00  0.00     0.092 N 
HETATM   10  C   UNK     0      67.438  72.480  65.062  0.00  0.00     0.298 C 
HETATM   11  C   UNK     0      67.304  72.942  66.510  0.00  0.00     0.198 C 
HETATM   12  O   UNK     0      67.683  74.314  66.631  0.00  0.00    -0.388 OA
HETATM   13  C   UNK     0      69.037  74.505  66.216  0.00  0.00     0.198 C 
HETATM   14  C   UNK     0      69.211  74.080  64.761  0.00  0.00     0.298 C 
ENDBRANCH   8   9
ENDBRANCH   7   8
ENDBRANCH   6   7
ENDBRANCH   4   6
ENDBRANCH   1   4
BRANCH   1  15
HETATM   15  C   UNK     0      64.734  73.936  62.885  0.00  0.00     0.090 A 
HETATM   16  C   UNK     0      63.708  73.163  63.451  0.00  0.00     0.000 A 
HETATM   17  C   UNK     0      63.214  73.499  64.734  0.00  0.00     0.009 A 
HETATM   18  C   UNK     0      63.161  72.062  62.772  0.00  0.00     0.014 A 
HETATM   19  C   UNK     0      63.762  74.600  65.413  0.00  0.00     0.079 A 
HETATM   20  C   UNK     0      62.188  72.725  65.300  0.00  0.00     0.015 A 
HETATM   21  C   UNK     0      64.780  75.358  64.836  0.00  0.00     0.039 A 
HETATM   22  C   UNK     0      65.266  75.027  63.574  0.00  0.00     0.029 A 
HETATM   23  C   UNK     0      61.656  71.635  64.610  0.00  0.00     0.001 A 
HETATM   24  C   UNK     0      62.142  71.304  63.349  0.00  0.00     0.001 A 
BRANCH  19  25
HETATM   25  O   UNK     0      63.317  74.963  66.652  0.00  0.00    -0.351 OA
BRANCH  25  26
HETATM   26  C   UNK     0      64.233  74.817  67.733  0.00  0.00     0.171 C 
HETATM   27  C   UNK     0      64.104  73.421  68.304  0.00  0.00     0.034 C 
ENDBRANCH  25  26
ENDBRANCH  19  25
ENDBRANCH   1  15
TORSDOF 8
ENDMDL
MODEL 4
REMARK VINA RESULT:      -7.1      2.390      8.821
REMARK  8 active torsions:
REMARK  status: ('A' for Active; 'I' for Inactive)
REMARK    1  A    between atoms: S_1  and  N_7 
REMARK    2  A    between atoms: S_1  and  C_15 
REMARK    3  A    between atoms: O_5  and  C_19 
REMARK    4  A    between atoms: O_5  and  C_25 
REMARK    5  A    between atoms: N_6  and  C_8 
REMARK    6  A    between atoms: N_7  and  C_14 
REMARK    7  A    between atoms: C_8  and  C_11 
REMARK    8  A    between atoms: C_11  and  C_14 
ROOT
HETATM    1  S   UNK     0      70.191  72.255  64.645  0.00  0.00     0.259 S 
HETATM    2  O   UNK     0      70.104  72.585  63.233  0.00  0.00    -0.201 OA
HETATM    3  O   UNK     0      70.874  71.041  65.062  0.00  0.00    -0.201 OA
ENDROOT
BRANCH   1   4
HETATM    4  N   UNK     0      68.621  72.264  65.314  0.00  0.00    -0.315 N 
HETATM    5  H   UNK     0      68.501  72.572  66.287  0.00  0.00     0.172 HD
BRANCH   4   6
HETATM    6  C   UNK     0      67.449  72.408  64.438  0.00  0.00     0.134 C 
BRANCH   6   7
HETATM    7  C   UNK     0      66.240  72.878  65.241  0.00  0.00     0.050 C 
BRANCH   7   8
HETATM    8  C   UNK     0      64.922  72.338  64.683  0.00  0.00     0.274 C 
BRANCH   8   9
HETATM    9  N   UNK     0      63.790  72.993  65.337  0.00  0.00     0.092 N 
HETATM   10  C   UNK     0      64.071  73.218  66.762  0.00  0.00     0.298 C 
HETATM   11  C   UNK     0      62.873  73.890  67.426  0.00  0.00     0.198 C 
HETATM   12  O   UNK     0      61.702  73.088  67.268  0.00  0.00    -0.388 OA
HETATM   13  C   UNK     0      61.404  72.891  65.885  0.00  0.00     0.198 C 
HETATM   14  C   UNK     0      62.567  72.195  65.185  0.00  0.00     0.298 C 
ENDBRANCH   8   9
ENDBRANCH   7   8
ENDBRANCH   6   7
ENDBRANCH   4   6
ENDBRANCH   1   4
BRANCH   1  15
HETATM   15  C   UNK     0      70.955  73.598  65.482  0.00  0.00     0.090 A 
HETATM   16  C   UNK     0      72.334  73.853  65.414  0.00  0.00     0.000 A 
HETATM   17  C   UNK     0      72.871  74.955  66.120  0.00  0.00     0.009 A 
HETATM   18  C   UNK     0      73.193  73.038  64.658  0.00  0.00     0.014 A 
HETATM   19  C   UNK     0      72.011  75.770  66.875  0.00  0.00     0.079 A 
HETATM   20  C   UNK     0      74.250  75.211  66.051  0.00  0.00     0.015 A 
HETATM   21  C   UNK     0      70.644  75.502  66.933  0.00  0.00     0.039 A 
HETATM   22  C   UNK     0      70.116  74.418  66.238  0.00  0.00     0.029 A 
HETATM   23  C   UNK     0      75.088  74.390  65.296  0.00  0.00     0.001 A 
HETATM   24  C   UNK     0      74.561  73.306  64.601  0.00  0.00     0.001 A 
BRANCH  19  25
HETATM   25  O   UNK     0      72.483  76.845  67.574  0.00  0.00    -0.351 OA
BRANCH  25  26
HETATM   26  C   UNK     0      71.721  77.263  68.703  0.00  0.00     0.171 C 
HETATM   27  C   UNK     0      72.667  77.703  69.800  0.00  0.00     0.034 C 
ENDBRANCH  25  26
ENDBRANCH  19  25
ENDBRANCH   1  15
TORSDOF 8
ENDMDL
MODEL 5
REMARK VINA RESULT:      -6.9      2.214      8.403
REMARK  8 active torsions:
REMARK  status: ('A' for Active; 'I' for Inactive)
REMARK    1  A    between atoms: S_1  and  N_7 
REMARK    2  A    between atoms: S_1  and  C_15 
REMARK    3  A    between atoms: O_5  and  C_19 
REMARK    4  A    between atoms: O_5  and  C_25 
REMARK    5  A    between atoms: N_6  and  C_8 
REMARK    6  A    between atoms: N_7  and  C_14 
REMARK    7  A    between atoms: C_8  and  C_11 
REMARK    8  A    between atoms: C_11  and  C_14 
ROOT
HETATM    1  S   UNK     0      68.578  73.662  65.617  0.00  0.00     0.259 S 
HETATM    2  O   UNK     0      68.356  73.090  66.934  0.00  0.00    -0.201 OA
HETATM    3  O   UNK     0      68.001  74.953  65.284  0.00  0.00    -0.201 OA
ENDROOT
BRANCH   1   4
HETATM    4  N   UNK     0      68.111  72.524  64.433  0.00  0.00    -0.315 N 
HETATM    5  H   UNK     0      68.457  71.560  64.512  0.00  0.00     0.172 HD
BRANCH   4   6
HETATM    6  C   UNK     0      66.851  72.704  63.697  0.00  0.00     0.134 C 
BRANCH   6   7
HETATM    7  C   UNK     0      65.661  72.360  64.587  0.00  0.00     0.050 C 
BRANCH   7   8
HETATM    8  C   UNK     0      64.504  73.347  64.422  0.00  0.00     0.274 C 
BRANCH   8   9
HETATM    9  N   UNK     0      63.713  73.408  65.650  0.00  0.00     0.092 N 
HETATM   10  C   UNK     0      62.628  72.418  65.621  0.00  0.00     0.298 C 
HETATM   11  C   UNK     0      61.809  72.508  66.905  0.00  0.00     0.198 C 
HETATM   12  O   UNK     0      61.280  73.825  67.067  0.00  0.00    -0.388 OA
HETATM   13  C   UNK     0      62.332  74.789  67.129  0.00  0.00     0.198 C 
HETATM   14  C   UNK     0      63.161  74.754  65.849  0.00  0.00     0.298 C 
ENDBRANCH   8   9
ENDBRANCH   7   8
ENDBRANCH   6   7
ENDBRANCH   4   6
ENDBRANCH   1   4
BRANCH   1  15
HETATM   15  C   UNK     0      70.312  73.779  65.349  0.00  0.00     0.090 A 
HETATM   16  C   UNK     0      71.124  74.707  66.021  0.00  0.00     0.000 A 
HETATM   17  C   UNK     0      72.512  74.737  65.746  0.00  0.00     0.009 A 
HETATM   18  C   UNK     0      70.590  75.604  66.960  0.00  0.00     0.014 A 
HETATM   19  C   UNK     0      73.046  73.839  64.807  0.00  0.00     0.079 A 
HETATM   20  C   UNK     0      73.326  75.664  66.418  0.00  0.00     0.015 A 
HETATM   21  C   UNK     0      72.224  72.925  64.149  0.00  0.00     0.039 A 
HETATM   22  C   UNK     0      70.859  72.894  64.419  0.00  0.00     0.029 A 
HETATM   23  C   UNK     0      72.777  76.549  67.348  0.00  0.00     0.001 A 
HETATM   24  C   UNK     0      71.413  76.519  67.618  0.00  0.00     0.001 A 
BRANCH  19  25
HETATM   25  O   UNK     0      74.378  73.832  64.509  0.00  0.00    -0.351 OA
BRANCH  25  26
HETATM   26  C   UNK     0      75.085  72.618  64.745  0.00  0.00     0.171 C 
HETATM   27  C   UNK     0      75.112  72.344  66.234  0.00  0.00     0.034 C 
ENDBRANCH  25  26
ENDBRANCH  19  25
ENDBRANCH   1  15
TORSDOF 8
ENDMDL
MODEL 6
REMARK VINA RESULT:      -6.9      2.078      2.872
REMARK  8 active torsions:
REMARK  status: ('A' for Active; 'I' for Inactive)
REMARK    1  A    between atoms: S_1  and  N_7 
REMARK    2  A    between atoms: S_1  and  C_15 
REMARK    3  A    between atoms: O_5  and  C_19 
REMARK    4  A    between atoms: O_5  and  C_25 
REMARK    5  A    between atoms: N_6  and  C_8 
REMARK    6  A    between atoms: N_7  and  C_14 
REMARK    7  A    between atoms: C_8  and  C_11 
REMARK    8  A    between atoms: C_11  and  C_14 
ROOT
HETATM    1  S   UNK     0      67.208  74.035  66.346  0.00  0.00     0.259 S 
HETATM    2  O   UNK     0      67.784  75.340  66.619  0.00  0.00    -0.201 OA
HETATM    3  O   UNK     0      67.631  72.882  67.123  0.00  0.00    -0.201 OA
ENDROOT
BRANCH   1   4
HETATM    4  N   UNK     0      67.396  73.682  64.686  0.00  0.00    -0.315 N 
HETATM    5  H   UNK     0      67.653  74.444  64.046  0.00  0.00     0.172 HD
BRANCH   4   6
HETATM    6  C   UNK     0      67.762  72.324  64.260  0.00  0.00     0.134 C 
BRANCH   6   7
HETATM    7  C   UNK     0      69.017  72.359  63.395  0.00  0.00     0.050 C 
BRANCH   7   8
HETATM    8  C   UNK     0      70.288  72.072  64.197  0.00  0.00     0.274 C 
BRANCH   8   9
HETATM    9  N   UNK     0      71.086  73.290  64.333  0.00  0.00     0.092 N 
HETATM   10  C   UNK     0      70.932  73.867  65.675  0.00  0.00     0.298 C 
HETATM   11  C   UNK     0      71.763  75.142  65.789  0.00  0.00     0.198 C 
HETATM   12  O   UNK     0      71.367  76.085  64.792  0.00  0.00    -0.388 OA
HETATM   13  C   UNK     0      71.545  75.542  63.482  0.00  0.00     0.198 C 
HETATM   14  C   UNK     0      70.708  74.278  63.313  0.00  0.00     0.298 C 
ENDBRANCH   8   9
ENDBRANCH   7   8
ENDBRANCH   6   7
ENDBRANCH   4   6
ENDBRANCH   1   4
BRANCH   1  15
HETATM   15  C   UNK     0      65.461  74.157  66.501  0.00  0.00     0.090 A 
HETATM   16  C   UNK     0      64.707  75.149  65.854  0.00  0.00     0.000 A 
HETATM   17  C   UNK     0      63.304  75.179  66.032  0.00  0.00     0.009 A 
HETATM   18  C   UNK     0      65.316  76.113  65.033  0.00  0.00     0.014 A 
HETATM   19  C   UNK     0      62.696  74.215  66.852  0.00  0.00     0.079 A 
HETATM   20  C   UNK     0      62.550  76.171  65.384  0.00  0.00     0.015 A 
HETATM   21  C   UNK     0      63.460  73.236  67.488  0.00  0.00     0.039 A 
HETATM   22  C   UNK     0      64.840  73.207  67.313  0.00  0.00     0.029 A 
HETATM   23  C   UNK     0      63.171  77.121  64.573  0.00  0.00     0.001 A 
HETATM   24  C   UNK     0      64.551  77.092  64.398  0.00  0.00     0.001 A 
BRANCH  19  25
HETATM   25  O   UNK     0      61.346  74.203  67.055  0.00  0.00    -0.351 OA
BRANCH  25  26
HETATM   26  C   UNK     0      60.525  73.945  65.919  0.00  0.00     0.171 C 
HETATM   27  C   UNK     0      60.917  72.610  65.322  0.00  0.00     0.034 C 
ENDBRANCH  25  26
ENDBRANCH  19  25
ENDBRANCH   1  15
TORSDOF 8
ENDMDL
MODEL 7
REMARK VINA RESULT:      -6.9      1.292      3.030
REMARK  8 active torsions:
REMARK  status: ('A' for Active; 'I' for Inactive)
REMARK    1  A    between atoms: S_1  and  N_7 
REMARK    2  A    between atoms: S_1  and  C_15 
REMARK    3  A    between atoms: O_5  and  C_19 
REMARK    4  A    between atoms: O_5  and  C_25 
REMARK    5  A    between atoms: N_6  and  C_8 
REMARK    6  A    between atoms: N_7  and  C_14 
REMARK    7  A    between atoms: C_8  and  C_11 
REMARK    8  A    between atoms: C_11  and  C_14 
ROOT
HETATM    1  S   UNK     0      68.269  73.628  65.421  0.00  0.00     0.259 S 
HETATM    2  O   UNK     0      68.525  75.055  65.339  0.00  0.00    -0.201 OA
HETATM    3  O   UNK     0      68.353  72.951  66.704  0.00  0.00    -0.201 OA
ENDROOT
BRANCH   1   4
HETATM    4  N   UNK     0      69.274  72.820  64.302  0.00  0.00    -0.315 N 
HETATM    5  H   UNK     0      69.312  73.164  63.335  0.00  0.00     0.172 HD
BRANCH   4   6
HETATM    6  C   UNK     0      70.453  72.078  64.774  0.00  0.00     0.134 C 
BRANCH   6   7
HETATM    7  C   UNK     0      71.558  73.044  65.187  0.00  0.00     0.050 C 
BRANCH   7   8
HETATM    8  C   UNK     0      71.843  74.098  64.117  0.00  0.00     0.274 C 
BRANCH   8   9
HETATM    9  N   UNK     0      71.777  75.439  64.698  0.00  0.00     0.092 N 
HETATM   10  C   UNK     0      72.778  76.322  64.084  0.00  0.00     0.298 C 
HETATM   11  C   UNK     0      72.699  77.710  64.713  0.00  0.00     0.198 C 
HETATM   12  O   UNK     0      72.904  77.629  66.124  0.00  0.00    -0.388 OA
HETATM   13  C   UNK     0      71.915  76.797  66.733  0.00  0.00     0.198 C 
HETATM   14  C   UNK     0      71.976  75.387  66.152  0.00  0.00     0.298 C 
ENDBRANCH   8   9
ENDBRANCH   7   8
ENDBRANCH   6   7
ENDBRANCH   4   6
ENDBRANCH   1   4
BRANCH   1  15
HETATM   15  C   UNK     0      66.667  73.314  64.768  0.00  0.00     0.090 A 
HETATM   16  C   UNK     0      66.358  73.463  63.406  0.00  0.00     0.000 A 
HETATM   17  C   UNK     0      65.042  73.192  62.961  0.00  0.00     0.009 A 
HETATM   18  C   UNK     0      67.326  73.875  62.476  0.00  0.00     0.014 A 
HETATM   19  C   UNK     0      64.075  72.779  63.892  0.00  0.00     0.079 A 
HETATM   20  C   UNK     0      64.733  73.340  61.599  0.00  0.00     0.015 A 
HETATM   21  C   UNK     0      64.400  72.637  65.241  0.00  0.00     0.039 A 
HETATM   22  C   UNK     0      65.693  72.904  65.678  0.00  0.00     0.029 A 
HETATM   23  C   UNK     0      65.707  73.752  60.689  0.00  0.00     0.001 A 
HETATM   24  C   UNK     0      67.001  74.018  61.127  0.00  0.00     0.001 A 
BRANCH  19  25
HETATM   25  O   UNK     0      62.792  72.507  63.510  0.00  0.00    -0.351 OA
BRANCH  25  26
HETATM   26  C   UNK     0      62.026  71.673  64.375  0.00  0.00     0.171 C 
HETATM   27  C   UNK     0      61.654  70.405  63.636  0.00  0.00     0.034 C 
ENDBRANCH  25  26
ENDBRANCH  19  25
ENDBRANCH   1  15
TORSDOF 8
ENDMDL
MODEL 8
REMARK VINA RESULT:      -6.9      2.790      3.742
REMARK  8 active torsions:
REMARK  status: ('A' for Active; 'I' for Inactive)
REMARK    1  A    between atoms: S_1  and  N_7 
REMARK    2  A    between atoms: S_1  and  C_15 
REMARK    3  A    between atoms: O_5  and  C_19 
REMARK    4  A    between atoms: O_5  and  C_25 
REMARK    5  A    between atoms: N_6  and  C_8 
REMARK    6  A    between atoms: N_7  and  C_14 
REMARK    7  A    between atoms: C_8  and  C_11 
REMARK    8  A    between atoms: C_11  and  C_14 
ROOT
HETATM    1  S   UNK     0      65.922  73.115  62.842  0.00  0.00     0.259 S 
HETATM    2  O   UNK     0      66.376  72.177  63.853  0.00  0.00    -0.201 OA
HETATM    3  O   UNK     0      65.417  72.621  61.572  0.00  0.00    -0.201 OA
ENDROOT
BRANCH   1   4
HETATM    4  N   UNK     0      67.163  74.248  62.539  0.00  0.00    -0.315 N 
HETATM    5  H   UNK     0      67.325  74.997  63.224  0.00  0.00     0.172 HD
BRANCH   4   6
HETATM    6  C   UNK     0      68.313  73.874  61.702  0.00  0.00     0.134 C 
BRANCH   6   7
HETATM    7  C   UNK     0      69.526  73.567  62.572  0.00  0.00     0.050 C 
BRANCH   7   8
HETATM    8  C   UNK     0      69.362  74.075  64.005  0.00  0.00     0.274 C 
BRANCH   8   9
HETATM    9  N   UNK     0      70.594  74.719  64.458  0.00  0.00     0.092 N 
HETATM   10  C   UNK     0      71.295  75.352  63.332  0.00  0.00     0.298 C 
HETATM   11  C   UNK     0      72.582  76.007  63.825  0.00  0.00     0.198 C 
HETATM   12  O   UNK     0      73.422  75.039  64.456  0.00  0.00    -0.388 OA
HETATM   13  C   UNK     0      72.759  74.442  65.571  0.00  0.00     0.198 C 
HETATM   14  C   UNK     0      71.477  73.750  65.119  0.00  0.00     0.298 C 
ENDBRANCH   8   9
ENDBRANCH   7   8
ENDBRANCH   6   7
ENDBRANCH   4   6
ENDBRANCH   1   4
BRANCH   1  15
HETATM   15  C   UNK     0      64.668  74.125  63.546  0.00  0.00     0.090 A 
HETATM   16  C   UNK     0      63.483  73.600  64.088  0.00  0.00     0.000 A 
HETATM   17  C   UNK     0      62.522  74.482  64.635  0.00  0.00     0.009 A 
HETATM   18  C   UNK     0      63.233  72.218  64.100  0.00  0.00     0.014 A 
HETATM   19  C   UNK     0      62.773  75.864  64.623  0.00  0.00     0.079 A 
HETATM   20  C   UNK     0      61.337  73.958  65.178  0.00  0.00     0.015 A 
HETATM   21  C   UNK     0      63.954  76.368  64.080  0.00  0.00     0.039 A 
HETATM   22  C   UNK     0      64.900  75.501  63.542  0.00  0.00     0.029 A 
HETATM   23  C   UNK     0      61.105  72.582  65.181  0.00  0.00     0.001 A 
HETATM   24  C   UNK     0      62.050  71.714  64.643  0.00  0.00     0.001 A 
BRANCH  19  25
HETATM   25  O   UNK     0      61.875  76.755  65.138  0.00  0.00    -0.351 OA
BRANCH  25  26
HETATM   26  C   UNK     0      60.927  77.311  64.231  0.00  0.00     0.171 C 
HETATM   27  C   UNK     0      61.485  78.598  63.662  0.00  0.00     0.034 C 
ENDBRANCH  25  26
ENDBRANCH  19  25
ENDBRANCH   1  15
TORSDOF 8
ENDMDL
MODEL 9
REMARK VINA RESULT:      -6.9      3.251      4.938
REMARK  8 active torsions:
REMARK  status: ('A' for Active; 'I' for Inactive)
REMARK    1  A    between atoms: S_1  and  N_7 
REMARK    2  A    between atoms: S_1  and  C_15 
REMARK    3  A    between atoms: O_5  and  C_19 
REMARK    4  A    between atoms: O_5  and  C_25 
REMARK    5  A    between atoms: N_6  and  C_8 
REMARK    6  A    between atoms: N_7  and  C_14 
REMARK    7  A    between atoms: C_8  and  C_11 
REMARK    8  A    between atoms: C_11  and  C_14 
ROOT
HETATM    1  S   UNK     0      70.312  71.930  64.037  0.00  0.00     0.259 S 
HETATM    2  O   UNK     0      70.771  71.126  65.157  0.00  0.00    -0.201 OA
HETATM    3  O   UNK     0      70.152  71.320  62.728  0.00  0.00    -0.201 OA
ENDROOT
BRANCH   1   4
HETATM    4  N   UNK     0      71.319  73.301  63.890  0.00  0.00    -0.315 N 
HETATM    5  H   UNK     0      71.052  74.039  63.226  0.00  0.00     0.172 HD
BRANCH   4   6
HETATM    6  C   UNK     0      72.167  73.716  65.016  0.00  0.00     0.134 C 
BRANCH   6   7
HETATM    7  C   UNK     0      73.641  73.622  64.635  0.00  0.00     0.050 C 
BRANCH   7   8
HETATM    8  C   UNK     0      74.560  73.602  65.857  0.00  0.00     0.274 C 
BRANCH   8   9
HETATM    9  N   UNK     0      75.450  72.443  65.801  0.00  0.00     0.092 N 
HETATM   10  C   UNK     0      75.690  72.036  64.410  0.00  0.00     0.298 C 
HETATM   11  C   UNK     0      76.610  70.820  64.377  0.00  0.00     0.198 C 
HETATM   12  O   UNK     0      76.038  69.743  65.121  0.00  0.00    -0.388 OA
HETATM   13  C   UNK     0      75.832  70.121  66.483  0.00  0.00     0.198 C 
HETATM   14  C   UNK     0      74.893  71.320  66.566  0.00  0.00     0.298 C 
ENDBRANCH   8   9
ENDBRANCH   7   8
ENDBRANCH   6   7
ENDBRANCH   4   6
ENDBRANCH   1   4
BRANCH   1  15
HETATM   15  C   UNK     0      68.769  72.652  64.470  0.00  0.00     0.090 A 
HETATM   16  C   UNK     0      67.940  73.293  63.535  0.00  0.00     0.000 A 
HETATM   17  C   UNK     0      66.713  73.851  63.965  0.00  0.00     0.009 A 
HETATM   18  C   UNK     0      68.302  73.391  62.181  0.00  0.00     0.014 A 
HETATM   19  C   UNK     0      66.352  73.752  65.319  0.00  0.00     0.079 A 
HETATM   20  C   UNK     0      65.883  74.491  63.030  0.00  0.00     0.015 A 
HETATM   21  C   UNK     0      67.188  73.112  66.234  0.00  0.00     0.039 A 
HETATM   22  C   UNK     0      68.394  72.564  65.811  0.00  0.00     0.029 A 
HETATM   23  C   UNK     0      66.259  74.580  61.689  0.00  0.00     0.001 A 
HETATM   24  C   UNK     0      67.466  74.031  61.266  0.00  0.00     0.001 A 
BRANCH  19  25
HETATM   25  O   UNK     0      65.178  74.275  65.781  0.00  0.00    -0.351 OA
BRANCH  25  26
HETATM   26  C   UNK     0      64.293  73.381  66.449  0.00  0.00     0.171 C 
HETATM   27  C   UNK     0      63.403  72.710  65.424  0.00  0.00     0.034 C 
ENDBRANCH  25  26
ENDBRANCH  19  25
ENDBRANCH   1  15
TORSDOF 8
ENDMDL
