MODEL 1
REMARK VINA RESULT:      -7.8      0.000      0.000
REMARK  4 active torsions:
REMARK  status: ('A' for Active; 'I' for Inactive)
REMARK    1  A    between atoms: N_5  and  C_12 
REMARK    2  A    between atoms: N_6  and  C_13 
REMARK    3  A    between atoms: C_19  and  C_23 
REMARK    4  A    between atoms: C_21  and  C_24 
ROOT
HETATM    1  N   UNK     0      69.260  73.704  65.192  0.00  0.00    -0.378 N 
HETATM    2  N   UNK     0      71.912  72.815  65.875  0.00  0.00    -0.363 N 
HETATM    3  C   UNK     0      69.767  72.414  64.723  0.00  0.00     0.143 C 
HETATM    4  C   UNK     0      70.143  74.530  66.017  0.00  0.00     0.143 C 
HETATM    5  C   UNK     0      71.294  72.436  64.604  0.00  0.00     0.144 C 
HETATM    6  C   UNK     0      71.143  73.661  66.786  0.00  0.00     0.144 C 
ENDROOT
BRANCH   2   7
HETATM    7  C   UNK     0      73.194  72.385  66.205  0.00  0.00     0.125 A 
HETATM    8  N   UNK     0      73.407  71.094  66.630  0.00  0.00    -0.243 NA
HETATM    9  C   UNK     0      74.670  70.728  66.940  0.00  0.00     0.135 A 
HETATM   10  C   UNK     0      75.766  71.573  66.857  0.00  0.00     0.065 A 
HETATM   11  C   UNK     0      75.550  72.878  66.428  0.00  0.00     0.021 A 
HETATM   12  C   UNK     0      74.264  73.292  66.099  0.00  0.00     0.051 A 
BRANCH  10  13
HETATM   13  C   UNK     0      77.129  71.100  67.217  0.00  0.00     0.418 C 
HETATM   14  F   UNK     0      77.771  70.445  66.203  0.00  0.00    -0.166 F 
HETATM   15  F   UNK     0      77.982  72.105  67.583  0.00  0.00    -0.166 F 
HETATM   16  F   UNK     0      77.125  70.227  68.268  0.00  0.00    -0.166 F 
ENDBRANCH  10  13
ENDBRANCH   2   7
BRANCH   1  17
HETATM   17  C   UNK     0      67.978  74.134  64.863  0.00  0.00     0.030 A 
HETATM   18  C   UNK     0      67.153  74.784  65.812  0.00  0.00     0.030 A 
HETATM   19  C   UNK     0      65.867  75.213  65.483  0.00  0.00     0.017 A 
HETATM   20  C   UNK     0      65.370  75.004  64.197  0.00  0.00     0.009 A 
HETATM   21  C   UNK     0      66.159  74.366  63.240  0.00  0.00     0.017 A 
HETATM   22  C   UNK     0      67.445  73.937  63.568  0.00  0.00     0.030 A 
BRANCH  20  23
HETATM   23  C   UNK     0      64.029  75.450  63.854  0.00  0.00     0.155 C 
HETATM   24  O   UNK     0      63.248  74.726  63.205  0.00  0.00    -0.293 OA
HETATM   25  C   UNK     0      63.544  76.829  64.288  0.00  0.00     0.096 C 
ENDBRANCH  20  23
ENDBRANCH   1  17
TORSDOF 4
ENDMDL
MODEL 2
REMARK VINA RESULT:      -7.6      6.822     10.387
REMARK  4 active torsions:
REMARK  status: ('A' for Active; 'I' for Inactive)
REMARK    1  A    between atoms: N_5  and  C_12 
REMARK    2  A    between atoms: N_6  and  C_13 
REMARK    3  A    between atoms: C_19  and  C_23 
REMARK    4  A    between atoms: C_21  and  C_24 
ROOT
HETATM    1  N   UNK     0      69.627  73.125  65.117  0.00  0.00    -0.378 N 
HETATM    2  N   UNK     0      66.758  73.350  65.210  0.00  0.00    -0.363 N 
HETATM    3  C   UNK     0      68.778  72.299  64.258  0.00  0.00     0.143 C 
HETATM    4  C   UNK     0      68.974  74.068  66.026  0.00  0.00     0.143 C 
HETATM    5  C   UNK     0      67.405  72.075  64.899  0.00  0.00     0.144 C 
HETATM    6  C   UNK     0      67.614  74.506  65.474  0.00  0.00     0.144 C 
ENDROOT
BRANCH   2   7
HETATM    7  C   UNK     0      65.371  73.459  65.254  0.00  0.00     0.125 A 
HETATM    8  N   UNK     0      64.779  74.586  65.772  0.00  0.00    -0.243 NA
HETATM    9  C   UNK     0      63.428  74.641  65.794  0.00  0.00     0.135 A 
HETATM   10  C   UNK     0      62.603  73.630  65.327  0.00  0.00     0.065 A 
HETATM   11  C   UNK     0      63.204  72.489  64.803  0.00  0.00     0.021 A 
HETATM   12  C   UNK     0      64.590  72.397  64.763  0.00  0.00     0.051 A 
BRANCH  10  13
HETATM   13  C   UNK     0      61.123  73.759  65.385  0.00  0.00     0.418 C 
HETATM   14  F   UNK     0      60.610  74.641  64.475  0.00  0.00    -0.166 F 
HETATM   15  F   UNK     0      60.458  72.586  65.152  0.00  0.00    -0.166 F 
HETATM   16  F   UNK     0      60.678  74.192  66.602  0.00  0.00    -0.166 F 
ENDBRANCH  10  13
ENDBRANCH   2   7
BRANCH   1  17
HETATM   17  C   UNK     0      71.014  73.018  65.071  0.00  0.00     0.030 A 
HETATM   18  C   UNK     0      71.784  72.897  66.253  0.00  0.00     0.030 A 
HETATM   19  C   UNK     0      73.174  72.792  66.206  0.00  0.00     0.017 A 
HETATM   20  C   UNK     0      73.834  72.803  64.978  0.00  0.00     0.009 A 
HETATM   21  C   UNK     0      73.103  72.920  63.796  0.00  0.00     0.017 A 
HETATM   22  C   UNK     0      71.713  73.026  63.841  0.00  0.00     0.030 A 
BRANCH  20  23
HETATM   23  C   UNK     0      75.283  72.693  64.930  0.00  0.00     0.155 C 
HETATM   24  O   UNK     0      76.000  73.147  65.844  0.00  0.00    -0.293 OA
HETATM   25  C   UNK     0      75.963  72.011  63.748  0.00  0.00     0.096 C 
ENDBRANCH  20  23
ENDBRANCH   1  17
TORSDOF 4
ENDMDL
MODEL 3
REMARK VINA RESULT:      -7.5     25.445     26.669
REMARK  4 active torsions:
REMARK  status: ('A' for Active; 'I' for Inactive)
REMARK    1  A    between atoms: N_5  and  C_12 
REMARK    2  A    between atoms: N_6  and  C_13 
REMARK    3  A    between atoms: C_19  and  C_23 
REMARK    4  A    between atoms: C_21  and  C_24 
ROOT
HETATM    1  N   UNK     0      57.337  55.910  51.983  0.00  0.00    -0.378 N 
HETATM    2  N   UNK     0      58.635  57.003  49.658  0.00  0.00    -0.363 N 
HETATM    3  C   UNK     0      57.489  57.355  51.814  0.00  0.00     0.143 C 
HETATM    4  C   UNK     0      57.866  55.036  50.935  0.00  0.00     0.143 C 
HETATM    5  C   UNK     0      58.713  57.679  50.953  0.00  0.00     0.144 C 
HETATM    6  C   UNK     0      57.880  55.753  49.582  0.00  0.00     0.144 C 
ENDROOT
BRANCH   2   7
HETATM    7  C   UNK     0      59.263  57.532  48.534  0.00  0.00     0.125 A 
HETATM    8  N   UNK     0      59.731  56.701  47.543  0.00  0.00    -0.243 NA
HETATM    9  C   UNK     0      60.335  57.265  46.474  0.00  0.00     0.135 A 
HETATM   10  C   UNK     0      60.512  58.630  46.313  0.00  0.00     0.065 A 
HETATM   11  C   UNK     0      60.039  59.470  47.316  0.00  0.00     0.021 A 
HETATM   12  C   UNK     0      59.411  58.927  48.431  0.00  0.00     0.051 A 
BRANCH  10  13
HETATM   13  C   UNK     0      61.188  59.180  45.108  0.00  0.00     0.418 C 
HETATM   14  F   UNK     0      62.445  58.681  44.906  0.00  0.00    -0.166 F 
HETATM   15  F   UNK     0      60.520  58.935  43.940  0.00  0.00    -0.166 F 
HETATM   16  F   UNK     0      61.341  60.537  45.161  0.00  0.00    -0.166 F 
ENDBRANCH  10  13
ENDBRANCH   2   7
BRANCH   1  17
HETATM   17  C   UNK     0      56.707  55.381  53.107  0.00  0.00     0.030 A 
HETATM   18  C   UNK     0      55.649  54.448  52.988  0.00  0.00     0.030 A 
HETATM   19  C   UNK     0      55.017  53.920  54.114  0.00  0.00     0.017 A 
HETATM   20  C   UNK     0      55.425  54.308  55.389  0.00  0.00     0.009 A 
HETATM   21  C   UNK     0      56.465  55.226  55.539  0.00  0.00     0.017 A 
HETATM   22  C   UNK     0      57.097  55.755  54.413  0.00  0.00     0.030 A 
BRANCH  20  23
HETATM   23  C   UNK     0      54.766  53.758  56.562  0.00  0.00     0.155 C 
HETATM   24  O   UNK     0      53.685  54.221  56.979  0.00  0.00    -0.293 OA
HETATM   25  C   UNK     0      55.389  52.588  57.316  0.00  0.00     0.096 C 
ENDBRANCH  20  23
ENDBRANCH   1  17
TORSDOF 4
ENDMDL
MODEL 4
REMARK VINA RESULT:      -7.4      2.736      3.586
REMARK  4 active torsions:
REMARK  status: ('A' for Active; 'I' for Inactive)
REMARK    1  A    between atoms: N_5  and  C_12 
REMARK    2  A    between atoms: N_6  and  C_13 
REMARK    3  A    between atoms: C_19  and  C_23 
REMARK    4  A    between atoms: C_21  and  C_24 
ROOT
HETATM    1  N   UNK     0      67.447  73.197  65.623  0.00  0.00    -0.378 N 
HETATM    2  N   UNK     0      70.294  73.362  65.223  0.00  0.00    -0.363 N 
HETATM    3  C   UNK     0      68.171  74.447  65.858  0.00  0.00     0.143 C 
HETATM    4  C   UNK     0      68.215  72.033  65.180  0.00  0.00     0.143 C 
HETATM    5  C   UNK     0      69.627  74.172  66.243  0.00  0.00     0.144 C 
HETATM    6  C   UNK     0      69.470  72.464  64.415  0.00  0.00     0.144 C 
ENDROOT
BRANCH   2   7
HETATM    7  C   UNK     0      71.670  73.442  65.030  0.00  0.00     0.125 A 
HETATM    8  N   UNK     0      72.302  72.579  64.167  0.00  0.00    -0.243 NA
HETATM    9  C   UNK     0      73.641  72.697  64.018  0.00  0.00     0.135 A 
HETATM   10  C   UNK     0      74.415  73.636  64.680  0.00  0.00     0.065 A 
HETATM   11  C   UNK     0      73.775  74.509  65.553  0.00  0.00     0.021 A 
HETATM   12  C   UNK     0      72.399  74.419  65.733  0.00  0.00     0.051 A 
BRANCH  10  13
HETATM   13  C   UNK     0      75.885  73.707  64.467  0.00  0.00     0.418 C 
HETATM   14  F   UNK     0      76.618  73.491  65.601  0.00  0.00    -0.166 F 
HETATM   15  F   UNK     0      76.356  72.793  63.564  0.00  0.00    -0.166 F 
HETATM   16  F   UNK     0      76.294  74.923  63.997  0.00  0.00    -0.166 F 
ENDBRANCH  10  13
ENDBRANCH   2   7
BRANCH   1  17
HETATM   17  C   UNK     0      66.071  73.117  65.814  0.00  0.00     0.030 A 
HETATM   18  C   UNK     0      65.213  72.631  64.799  0.00  0.00     0.030 A 
HETATM   19  C   UNK     0      63.833  72.553  64.990  0.00  0.00     0.017 A 
HETATM   20  C   UNK     0      63.273  72.958  66.201  0.00  0.00     0.009 A 
HETATM   21  C   UNK     0      64.092  73.442  67.221  0.00  0.00     0.017 A 
HETATM   22  C   UNK     0      65.472  73.520  67.030  0.00  0.00     0.030 A 
BRANCH  20  23
HETATM   23  C   UNK     0      61.835  72.877  66.400  0.00  0.00     0.155 C 
HETATM   24  O   UNK     0      61.346  72.278  67.378  0.00  0.00    -0.293 OA
HETATM   25  C   UNK     0      60.883  73.533  65.404  0.00  0.00     0.096 C 
ENDBRANCH  20  23
ENDBRANCH   1  17
TORSDOF 4
ENDMDL
MODEL 5
REMARK VINA RESULT:      -7.2     25.528     27.377
REMARK  4 active torsions:
REMARK  status: ('A' for Active; 'I' for Inactive)
REMARK    1  A    between atoms: N_5  and  C_12 
REMARK    2  A    between atoms: N_6  and  C_13 
REMARK    3  A    between atoms: C_19  and  C_23 
REMARK    4  A    between atoms: C_21  and  C_24 
ROOT
HETATM    1  N   UNK     0      54.762  53.723  61.354  0.00  0.00    -0.378 N 
HETATM    2  N   UNK     0      54.473  53.579  58.493  0.00  0.00    -0.363 N 
HETATM    3  C   UNK     0      55.300  52.592  60.598  0.00  0.00     0.143 C 
HETATM    4  C   UNK     0      54.071  54.778  60.612  0.00  0.00     0.143 C 
HETATM    5  C   UNK     0      54.502  52.365  59.311  0.00  0.00     0.144 C 
HETATM    6  C   UNK     0      54.592  54.867  59.175  0.00  0.00     0.144 C 
ENDROOT
BRANCH   2   7
HETATM    7  C   UNK     0      54.333  53.508  57.110  0.00  0.00     0.125 A 
HETATM    8  N   UNK     0      53.167  53.918  56.508  0.00  0.00    -0.243 NA
HETATM    9  C   UNK     0      53.082  53.826  55.161  0.00  0.00     0.135 A 
HETATM   10  C   UNK     0      54.098  53.346  54.350  0.00  0.00     0.065 A 
HETATM   11  C   UNK     0      55.277  52.932  54.961  0.00  0.00     0.021 A 
HETATM   12  C   UNK     0      55.403  53.011  56.343  0.00  0.00     0.051 A 
BRANCH  10  13
HETATM   13  C   UNK     0      53.933  53.273  52.874  0.00  0.00     0.418 C 
HETATM   14  F   UNK     0      52.658  52.976  52.477  0.00  0.00    -0.166 F 
HETATM   15  F   UNK     0      54.241  54.438  52.227  0.00  0.00    -0.166 F 
HETATM   16  F   UNK     0      54.724  52.319  52.300  0.00  0.00    -0.166 F 
ENDBRANCH  10  13
ENDBRANCH   2   7
BRANCH   1  17
HETATM   17  C   UNK     0      54.903  53.794  62.737  0.00  0.00     0.030 A 
HETATM   18  C   UNK     0      54.909  55.037  63.414  0.00  0.00     0.030 A 
HETATM   19  C   UNK     0      55.053  55.108  64.800  0.00  0.00     0.017 A 
HETATM   20  C   UNK     0      55.194  53.940  65.547  0.00  0.00     0.009 A 
HETATM   21  C   UNK     0      55.192  52.700  64.909  0.00  0.00     0.017 A 
HETATM   22  C   UNK     0      55.049  52.628  63.523  0.00  0.00     0.030 A 
BRANCH  20  23
HETATM   23  C   UNK     0      55.344  54.014  66.992  0.00  0.00     0.155 C 
HETATM   24  O   UNK     0      56.468  53.978  67.532  0.00  0.00    -0.293 OA
HETATM   25  C   UNK     0      54.116  54.142  67.887  0.00  0.00     0.096 C 
ENDBRANCH  20  23
ENDBRANCH   1  17
TORSDOF 4
ENDMDL
MODEL 6
REMARK VINA RESULT:      -7.1     25.171     26.529
REMARK  4 active torsions:
REMARK  status: ('A' for Active; 'I' for Inactive)
REMARK    1  A    between atoms: N_5  and  C_12 
REMARK    2  A    between atoms: N_6  and  C_13 
REMARK    3  A    between atoms: C_19  and  C_23 
REMARK    4  A    between atoms: C_21  and  C_24 
ROOT
HETATM    1  N   UNK     0      54.685  53.824  63.483  0.00  0.00    -0.378 N 
HETATM    2  N   UNK     0      55.044  53.828  60.626  0.00  0.00    -0.363 N 
HETATM    3  C   UNK     0      54.214  54.942  62.665  0.00  0.00     0.143 C 
HETATM    4  C   UNK     0      55.346  52.708  62.805  0.00  0.00     0.143 C 
HETATM    5  C   UNK     0      55.050  55.077  61.388  0.00  0.00     0.144 C 
HETATM    6  C   UNK     0      54.853  52.577  61.361  0.00  0.00     0.144 C 
ENDROOT
BRANCH   2   7
HETATM    7  C   UNK     0      55.217  53.829  59.245  0.00  0.00     0.125 A 
HETATM    8  N   UNK     0      56.481  53.856  58.703  0.00  0.00    -0.243 NA
HETATM    9  C   UNK     0      56.593  53.859  57.356  0.00  0.00     0.135 A 
HETATM   10  C   UNK     0      55.514  53.836  56.487  0.00  0.00     0.065 A 
HETATM   11  C   UNK     0      54.237  53.811  57.036  0.00  0.00     0.021 A 
HETATM   12  C   UNK     0      54.080  53.806  58.417  0.00  0.00     0.051 A 
BRANCH  10  13
HETATM   13  C   UNK     0      55.715  53.843  55.013  0.00  0.00     0.418 C 
HETATM   14  F   UNK     0      54.563  54.031  54.300  0.00  0.00    -0.166 F 
HETATM   15  F   UNK     0      56.563  54.824  54.577  0.00  0.00    -0.166 F 
HETATM   16  F   UNK     0      56.245  52.673  54.546  0.00  0.00    -0.166 F 
ENDBRANCH  10  13
ENDBRANCH   2   7
BRANCH   1  17
HETATM   17  C   UNK     0      54.510  53.821  64.864  0.00  0.00     0.030 A 
HETATM   18  C   UNK     0      53.240  53.593  65.445  0.00  0.00     0.030 A 
HETATM   19  C   UNK     0      53.064  53.592  66.829  0.00  0.00     0.017 A 
HETATM   20  C   UNK     0      54.152  53.819  67.670  0.00  0.00     0.009 A 
HETATM   21  C   UNK     0      55.417  54.047  67.127  0.00  0.00     0.017 A 
HETATM   22  C   UNK     0      55.593  54.048  65.744  0.00  0.00     0.030 A 
BRANCH  20  23
HETATM   23  C   UNK     0      53.969  53.818  69.112  0.00  0.00     0.155 C 
HETATM   24  O   UNK     0      53.541  54.823  69.714  0.00  0.00    -0.293 OA
HETATM   25  C   UNK     0      54.299  52.573  69.929  0.00  0.00     0.096 C 
ENDBRANCH  20  23
ENDBRANCH   1  17
TORSDOF 4
ENDMDL
MODEL 7
REMARK VINA RESULT:      -7.1     25.368     26.797
REMARK  4 active torsions:
REMARK  status: ('A' for Active; 'I' for Inactive)
REMARK    1  A    between atoms: N_5  and  C_12 
REMARK    2  A    between atoms: N_6  and  C_13 
REMARK    3  A    between atoms: C_19  and  C_23 
REMARK    4  A    between atoms: C_21  and  C_24 
ROOT
HETATM    1  N   UNK     0      58.699  57.000  49.692  0.00  0.00    -0.378 N 
HETATM    2  N   UNK     0      57.472  55.868  52.037  0.00  0.00    -0.363 N 
HETATM    3  C   UNK     0      58.838  57.641  51.000  0.00  0.00     0.143 C 
HETATM    4  C   UNK     0      57.916  55.767  49.612  0.00  0.00     0.143 C 
HETATM    5  C   UNK     0      57.643  57.315  51.900  0.00  0.00     0.144 C 
HETATM    6  C   UNK     0      57.942  55.015  50.946  0.00  0.00     0.144 C 
ENDROOT
BRANCH   2   7
HETATM    7  C   UNK     0      56.879  55.320  53.172  0.00  0.00     0.125 A 
HETATM    8  N   UNK     0      55.937  54.326  53.052  0.00  0.00    -0.243 NA
HETATM    9  C   UNK     0      55.390  53.830  54.185  0.00  0.00     0.135 A 
HETATM   10  C   UNK     0      55.721  54.262  55.460  0.00  0.00     0.065 A 
HETATM   11  C   UNK     0      56.674  55.268  55.579  0.00  0.00     0.021 A 
HETATM   12  C   UNK     0      57.260  55.802  54.438  0.00  0.00     0.051 A 
BRANCH  10  13
HETATM   13  C   UNK     0      55.075  53.670  56.662  0.00  0.00     0.418 C 
HETATM   14  F   UNK     0      53.842  54.192  56.938  0.00  0.00    -0.166 F 
HETATM   15  F   UNK     0      54.875  52.320  56.572  0.00  0.00    -0.166 F 
HETATM   16  F   UNK     0      55.810  53.852  57.800  0.00  0.00    -0.166 F 
ENDBRANCH  10  13
ENDBRANCH   2   7
BRANCH   1  17
HETATM   17  C   UNK     0      59.294  57.547  48.558  0.00  0.00     0.030 A 
HETATM   18  C   UNK     0      59.736  56.729  47.491  0.00  0.00     0.030 A 
HETATM   19  C   UNK     0      60.334  57.277  46.356  0.00  0.00     0.017 A 
HETATM   20  C   UNK     0      60.506  58.657  46.255  0.00  0.00     0.009 A 
HETATM   21  C   UNK     0      60.080  59.489  47.290  0.00  0.00     0.017 A 
HETATM   22  C   UNK     0      59.483  58.942  48.426  0.00  0.00     0.030 A 
BRANCH  20  23
HETATM   23  C   UNK     0      61.129  59.227  45.072  0.00  0.00     0.155 C 
HETATM   24  O   UNK     0      61.701  60.335  45.108  0.00  0.00    -0.293 OA
HETATM   25  C   UNK     0      61.098  58.473  43.747  0.00  0.00     0.096 C 
ENDBRANCH  20  23
ENDBRANCH   1  17
TORSDOF 4
ENDMDL
MODEL 8
REMARK VINA RESULT:      -7.1     26.214     28.053
REMARK  4 active torsions:
REMARK  status: ('A' for Active; 'I' for Inactive)
REMARK    1  A    between atoms: N_5  and  C_12 
REMARK    2  A    between atoms: N_6  and  C_13 
REMARK    3  A    between atoms: C_19  and  C_23 
REMARK    4  A    between atoms: C_21  and  C_24 
ROOT
HETATM    1  N   UNK     0      52.523  58.342  78.094  0.00  0.00    -0.378 N 
HETATM    2  N   UNK     0      51.115  58.865  75.638  0.00  0.00    -0.363 N 
HETATM    3  C   UNK     0      51.566  59.444  77.993  0.00  0.00     0.143 C 
HETATM    4  C   UNK     0      52.744  57.514  76.907  0.00  0.00     0.143 C 
HETATM    5  C   UNK     0      51.465  59.952  76.552  0.00  0.00     0.144 C 
HETATM    6  C   UNK     0      51.504  57.505  76.009  0.00  0.00     0.144 C 
ENDROOT
BRANCH   2   7
HETATM    7  C   UNK     0      50.434  59.118  74.450  0.00  0.00     0.125 A 
HETATM    8  N   UNK     0      49.497  58.227  73.983  0.00  0.00    -0.243 NA
HETATM    9  C   UNK     0      48.866  58.519  72.823  0.00  0.00     0.135 A 
HETATM   10  C   UNK     0      49.105  59.662  72.076  0.00  0.00     0.065 A 
HETATM   11  C   UNK     0      50.053  60.562  72.550  0.00  0.00     0.021 A 
HETATM   12  C   UNK     0      50.723  60.297  73.739  0.00  0.00     0.051 A 
BRANCH  10  13
HETATM   13  C   UNK     0      48.372  59.916  70.807  0.00  0.00     0.418 C 
HETATM   14  F   UNK     0      47.242  59.160  70.662  0.00  0.00    -0.166 F 
HETATM   15  F   UNK     0      47.952  61.210  70.663  0.00  0.00    -0.166 F 
HETATM   16  F   UNK     0      49.128  59.655  69.699  0.00  0.00    -0.166 F 
ENDBRANCH  10  13
ENDBRANCH   2   7
BRANCH   1  17
HETATM   17  C   UNK     0      53.202  58.088  79.282  0.00  0.00     0.030 A 
HETATM   18  C   UNK     0      52.545  58.146  80.534  0.00  0.00     0.030 A 
HETATM   19  C   UNK     0      53.226  57.894  81.724  0.00  0.00     0.017 A 
HETATM   20  C   UNK     0      54.583  57.574  81.697  0.00  0.00     0.009 A 
HETATM   21  C   UNK     0      55.259  57.507  80.479  0.00  0.00     0.017 A 
HETATM   22  C   UNK     0      54.578  57.761  79.288  0.00  0.00     0.030 A 
BRANCH  20  23
HETATM   23  C   UNK     0      55.293  57.311  82.938  0.00  0.00     0.155 C 
HETATM   24  O   UNK     0      54.806  57.619  84.044  0.00  0.00    -0.293 OA
HETATM   25  C   UNK     0      56.664  56.643  82.913  0.00  0.00     0.096 C 
ENDBRANCH  20  23
ENDBRANCH   1  17
TORSDOF 4
ENDMDL
MODEL 9
REMARK VINA RESULT:      -7.0     26.959     28.309
REMARK  4 active torsions:
REMARK  status: ('A' for Active; 'I' for Inactive)
REMARK    1  A    between atoms: N_5  and  C_12 
REMARK    2  A    between atoms: N_6  and  C_13 
REMARK    3  A    between atoms: C_19  and  C_23 
REMARK    4  A    between atoms: C_21  and  C_24 
ROOT
HETATM    1  N   UNK     0      53.473  50.888  68.931  0.00  0.00    -0.378 N 
HETATM    2  N   UNK     0      54.092  52.787  66.858  0.00  0.00    -0.363 N 
HETATM    3  C   UNK     0      53.003  50.687  67.560  0.00  0.00     0.143 C 
HETATM    4  C   UNK     0      54.265  52.085  69.217  0.00  0.00     0.143 C 
HETATM    5  C   UNK     0      52.842  52.026  66.835  0.00  0.00     0.144 C 
HETATM    6  C   UNK     0      55.016  52.555  67.968  0.00  0.00     0.144 C 
ENDROOT
BRANCH   2   7
HETATM    7  C   UNK     0      54.392  53.705  65.855  0.00  0.00     0.125 A 
HETATM    8  N   UNK     0      53.569  53.833  64.761  0.00  0.00    -0.243 NA
HETATM    9  C   UNK     0      53.907  54.737  63.815  0.00  0.00     0.135 A 
HETATM   10  C   UNK     0      55.031  55.545  63.880  0.00  0.00     0.065 A 
HETATM   11  C   UNK     0      55.863  55.414  64.987  0.00  0.00     0.021 A 
HETATM   12  C   UNK     0      55.549  54.496  65.981  0.00  0.00     0.051 A 
BRANCH  10  13
HETATM   13  C   UNK     0      55.340  56.518  62.798  0.00  0.00     0.418 C 
HETATM   14  F   UNK     0      56.679  56.731  62.615  0.00  0.00    -0.166 F 
HETATM   15  F   UNK     0      54.871  56.144  61.569  0.00  0.00    -0.166 F 
HETATM   16  F   UNK     0      54.805  57.753  63.030  0.00  0.00    -0.166 F 
ENDBRANCH  10  13
ENDBRANCH   2   7
BRANCH   1  17
HETATM   17  C   UNK     0      53.175  49.969  69.934  0.00  0.00     0.030 A 
HETATM   18  C   UNK     0      53.399  50.269  71.298  0.00  0.00     0.030 A 
HETATM   19  C   UNK     0      53.102  49.347  72.303  0.00  0.00     0.017 A 
HETATM   20  C   UNK     0      52.573  48.101  71.971  0.00  0.00     0.009 A 
HETATM   21  C   UNK     0      52.340  47.776  70.634  0.00  0.00     0.017 A 
HETATM   22  C   UNK     0      52.637  48.697  69.630  0.00  0.00     0.030 A 
BRANCH  20  23
HETATM   23  C   UNK     0      52.264  47.140  73.018  0.00  0.00     0.155 C 
HETATM   24  O   UNK     0      51.087  46.831  73.291  0.00  0.00    -0.293 OA
HETATM   25  C   UNK     0      53.387  46.481  73.811  0.00  0.00     0.096 C 
ENDBRANCH  20  23
ENDBRANCH   1  17
TORSDOF 4
ENDMDL
