MODEL 1
REMARK VINA RESULT:      -5.7      0.000      0.000
REMARK  11 active torsions:
REMARK  status: ('A' for Active; 'I' for Inactive)
REMARK    1  A    between atoms: O_1  and  C_11 
REMARK    2  A    between atoms: O_1  and  C_13 
REMARK    3  A    between atoms: O_2  and  C_20 
REMARK    4  A    between atoms: N_3  and  C_15 
REMARK    5  A    between atoms: N_3  and  C_19 
REMARK    6  A    between atoms: C_4  and  C_5 
REMARK    7  A    between atoms: C_9  and  C_10 
REMARK    8  A    between atoms: C_9  and  C_12 
REMARK    9  A    between atoms: C_10  and  C_13 
REMARK   10  A    between atoms: C_12  and  C_15 
REMARK   11  A    between atoms: C_19  and  C_20 
ROOT
HETATM    1  O   UNK     0      63.997  73.908  62.856  0.00  0.00    -0.351 OA
ENDROOT
BRANCH   1   2
HETATM    2  C   UNK     0      64.374  74.863  63.766  0.00  0.00     0.075 A 
HETATM    3  C   UNK     0      65.632  74.818  64.368  0.00  0.00    -0.017 A 
HETATM    4  C   UNK     0      65.998  75.797  65.292  0.00  0.00     0.011 A 
HETATM    5  C   UNK     0      65.107  76.821  65.613  0.00  0.00     0.001 A 
HETATM    6  C   UNK     0      63.849  76.866  65.012  0.00  0.00     0.003 A 
HETATM    7  C   UNK     0      63.483  75.887  64.088  0.00  0.00     0.037 A 
BRANCH   3   8
HETATM    8  C   UNK     0      66.598  73.729  64.035  0.00  0.00    -0.021 C 
HETATM    9  C   UNK     0      67.974  73.964  64.732  0.00  0.00     0.019 C 
HETATM   10  C   UNK     0      66.855  73.653  62.500  0.00  0.00     0.019 C 
HETATM   11  C   UNK     0      66.156  72.290  64.458  0.00  0.00     0.019 C 
ENDBRANCH   3   8
ENDBRANCH   1   2
BRANCH   1  12
HETATM   12  C   UNK     0      62.687  73.377  62.990  0.00  0.00     0.175 C 
BRANCH  12  13
HETATM   13  C   UNK     0      62.748  71.857  63.072  0.00  0.00     0.027 C 
BRANCH  13  14
HETATM   14  C   UNK     0      62.026  71.313  64.308  0.00  0.00     0.004 C 
BRANCH  14  15
HETATM   15  C   UNK     0      61.346  72.436  65.094  0.00  0.00     0.030 C 
BRANCH  15  16
HETATM   16  C   UNK     0      61.800  72.443  66.552  0.00  0.00     0.269 C 
BRANCH  16  17
HETATM   17  N   UNK     0      63.224  72.742  66.639  0.00  0.00     0.085 N 
HETATM   18  H   UNK     0      63.617  72.821  65.701  0.00  0.00     0.315 HD
BRANCH  17  19
HETATM   19  C   UNK     0      63.452  73.979  67.374  0.00  0.00     0.295 C 
BRANCH  19  20
HETATM   20  C   UNK     0      64.579  73.807  68.379  0.00  0.00     0.194 C 
BRANCH  20  21
HETATM   21  O   UNK     0      65.525  72.886  67.852  0.00  0.00    -0.399 OA
HETATM   22  H   UNK     0      65.845  72.349  68.596  0.00  0.00     0.209 HD
ENDBRANCH  20  21
ENDBRANCH  19  20
ENDBRANCH  17  19
ENDBRANCH  16  17
ENDBRANCH  15  16
ENDBRANCH  14  15
ENDBRANCH  13  14
ENDBRANCH  12  13
ENDBRANCH   1  12
TORSDOF 11
ENDMDL
MODEL 2
REMARK VINA RESULT:      -5.6      2.392      5.465
REMARK  11 active torsions:
REMARK  status: ('A' for Active; 'I' for Inactive)
REMARK    1  A    between atoms: O_1  and  C_11 
REMARK    2  A    between atoms: O_1  and  C_13 
REMARK    3  A    between atoms: O_2  and  C_20 
REMARK    4  A    between atoms: N_3  and  C_15 
REMARK    5  A    between atoms: N_3  and  C_19 
REMARK    6  A    between atoms: C_4  and  C_5 
REMARK    7  A    between atoms: C_9  and  C_10 
REMARK    8  A    between atoms: C_9  and  C_12 
REMARK    9  A    between atoms: C_10  and  C_13 
REMARK   10  A    between atoms: C_12  and  C_15 
REMARK   11  A    between atoms: C_19  and  C_20 
ROOT
HETATM    1  O   UNK     0      64.063  75.491  66.065  0.00  0.00    -0.351 OA
ENDROOT
BRANCH   1   2
HETATM    2  C   UNK     0      62.875  75.787  65.444  0.00  0.00     0.075 A 
HETATM    3  C   UNK     0      61.930  74.791  65.202  0.00  0.00    -0.017 A 
HETATM    4  C   UNK     0      60.727  75.109  64.570  0.00  0.00     0.011 A 
HETATM    5  C   UNK     0      60.472  76.424  64.180  0.00  0.00     0.001 A 
HETATM    6  C   UNK     0      61.418  77.420  64.422  0.00  0.00     0.003 A 
HETATM    7  C   UNK     0      62.620  77.102  65.054  0.00  0.00     0.037 A 
BRANCH   3   8
HETATM    8  C   UNK     0      62.187  73.379  65.613  0.00  0.00    -0.021 C 
HETATM    9  C   UNK     0      60.977  72.459  65.260  0.00  0.00     0.019 C 
HETATM   10  C   UNK     0      62.426  73.272  67.150  0.00  0.00     0.019 C 
HETATM   11  C   UNK     0      63.431  72.704  64.948  0.00  0.00     0.019 C 
ENDBRANCH   3   8
ENDBRANCH   1   2
BRANCH   1  12
HETATM   12  C   UNK     0      65.192  76.265  65.688  0.00  0.00     0.175 C 
BRANCH  12  13
HETATM   13  C   UNK     0      66.467  75.616  66.214  0.00  0.00     0.027 C 
BRANCH  13  14
HETATM   14  C   UNK     0      66.669  74.202  65.663  0.00  0.00     0.004 C 
BRANCH  14  15
HETATM   15  C   UNK     0      66.882  74.222  64.148  0.00  0.00     0.030 C 
BRANCH  15  16
HETATM   16  C   UNK     0      67.227  72.831  63.620  0.00  0.00     0.269 C 
BRANCH  16  17
HETATM   17  N   UNK     0      67.048  72.778  62.174  0.00  0.00     0.085 N 
HETATM   18  H   UNK     0      66.457  71.984  61.929  0.00  0.00     0.315 HD
BRANCH  17  19
HETATM   19  C   UNK     0      66.448  74.010  61.680  0.00  0.00     0.295 C 
BRANCH  19  20
HETATM   20  C   UNK     0      65.799  73.785  60.323  0.00  0.00     0.194 C 
BRANCH  20  21
HETATM   21  O   UNK     0      65.795  75.013  59.609  0.00  0.00    -0.399 OA
HETATM   22  H   UNK     0      66.241  75.671  60.170  0.00  0.00     0.209 HD
ENDBRANCH  20  21
ENDBRANCH  19  20
ENDBRANCH  17  19
ENDBRANCH  16  17
ENDBRANCH  15  16
ENDBRANCH  14  15
ENDBRANCH  13  14
ENDBRANCH  12  13
ENDBRANCH   1  12
TORSDOF 11
ENDMDL
MODEL 3
REMARK VINA RESULT:      -5.6     21.835     24.617
REMARK  11 active torsions:
REMARK  status: ('A' for Active; 'I' for Inactive)
REMARK    1  A    between atoms: O_1  and  C_11 
REMARK    2  A    between atoms: O_1  and  C_13 
REMARK    3  A    between atoms: O_2  and  C_20 
REMARK    4  A    between atoms: N_3  and  C_15 
REMARK    5  A    between atoms: N_3  and  C_19 
REMARK    6  A    between atoms: C_4  and  C_5 
REMARK    7  A    between atoms: C_9  and  C_10 
REMARK    8  A    between atoms: C_9  and  C_12 
REMARK    9  A    between atoms: C_10  and  C_13 
REMARK   10  A    between atoms: C_12  and  C_15 
REMARK   11  A    between atoms: C_19  and  C_20 
ROOT
HETATM    1  O   UNK     0      56.184  52.377  67.931  0.00  0.00    -0.351 OA
ENDROOT
BRANCH   1   2
HETATM    2  C   UNK     0      56.197  53.297  66.913  0.00  0.00     0.075 A 
HETATM    3  C   UNK     0      55.022  53.635  66.242  0.00  0.00    -0.017 A 
HETATM    4  C   UNK     0      55.054  54.573  65.209  0.00  0.00     0.011 A 
HETATM    5  C   UNK     0      56.262  55.171  64.848  0.00  0.00     0.001 A 
HETATM    6  C   UNK     0      57.437  54.832  65.518  0.00  0.00     0.003 A 
HETATM    7  C   UNK     0      57.405  53.894  66.551  0.00  0.00     0.037 A 
BRANCH   3   8
HETATM    8  C   UNK     0      53.722  53.005  66.616  0.00  0.00    -0.021 C 
HETATM    9  C   UNK     0      53.784  51.453  66.467  0.00  0.00     0.019 C 
HETATM   10  C   UNK     0      52.563  53.518  65.709  0.00  0.00     0.019 C 
HETATM   11  C   UNK     0      53.250  53.264  68.084  0.00  0.00     0.019 C 
ENDBRANCH   3   8
ENDBRANCH   1   2
BRANCH   1  12
HETATM   12  C   UNK     0      57.301  51.503  68.019  0.00  0.00     0.175 C 
BRANCH  12  13
HETATM   13  C   UNK     0      57.111  50.533  69.179  0.00  0.00     0.027 C 
BRANCH  13  14
HETATM   14  C   UNK     0      55.673  50.530  69.703  0.00  0.00     0.004 C 
BRANCH  14  15
HETATM   15  C   UNK     0      54.925  49.268  69.266  0.00  0.00     0.030 C 
BRANCH  15  16
HETATM   16  C   UNK     0      55.822  48.035  69.357  0.00  0.00     0.269 C 
BRANCH  16  17
HETATM   17  N   UNK     0      55.738  47.445  70.687  0.00  0.00     0.085 N 
HETATM   18  H   UNK     0      54.913  46.848  70.748  0.00  0.00     0.315 HD
BRANCH  17  19
HETATM   19  C   UNK     0      56.932  46.667  70.988  0.00  0.00     0.295 C 
BRANCH  19  20
HETATM   20  C   UNK     0      57.825  46.559  69.762  0.00  0.00     0.194 C 
BRANCH  20  21
HETATM   21  O   UNK     0      59.151  46.910  70.131  0.00  0.00    -0.399 OA
HETATM   22  H   UNK     0      59.676  46.091  70.126  0.00  0.00     0.209 HD
ENDBRANCH  20  21
ENDBRANCH  19  20
ENDBRANCH  17  19
ENDBRANCH  16  17
ENDBRANCH  15  16
ENDBRANCH  14  15
ENDBRANCH  13  14
ENDBRANCH  12  13
ENDBRANCH   1  12
TORSDOF 11
ENDMDL
MODEL 4
REMARK VINA RESULT:      -5.6      2.422      5.819
REMARK  11 active torsions:
REMARK  status: ('A' for Active; 'I' for Inactive)
REMARK    1  A    between atoms: O_1  and  C_11 
REMARK    2  A    between atoms: O_1  and  C_13 
REMARK    3  A    between atoms: O_2  and  C_20 
REMARK    4  A    between atoms: N_3  and  C_15 
REMARK    5  A    between atoms: N_3  and  C_19 
REMARK    6  A    between atoms: C_4  and  C_5 
REMARK    7  A    between atoms: C_9  and  C_10 
REMARK    8  A    between atoms: C_9  and  C_12 
REMARK    9  A    between atoms: C_10  and  C_13 
REMARK   10  A    between atoms: C_12  and  C_15 
REMARK   11  A    between atoms: C_19  and  C_20 
ROOT
HETATM    1  O   UNK     0      64.360  74.576  66.638  0.00  0.00    -0.351 OA
ENDROOT
BRANCH   1   2
HETATM    2  C   UNK     0      63.173  74.089  66.151  0.00  0.00     0.075 A 
HETATM    3  C   UNK     0      62.284  74.924  65.475  0.00  0.00    -0.017 A 
HETATM    4  C   UNK     0      61.081  74.412  64.988  0.00  0.00     0.011 A 
HETATM    5  C   UNK     0      60.768  73.066  65.177  0.00  0.00     0.001 A 
HETATM    6  C   UNK     0      61.657  72.231  65.855  0.00  0.00     0.003 A 
HETATM    7  C   UNK     0      62.860  72.743  66.342  0.00  0.00     0.037 A 
BRANCH   3   8
HETATM    8  C   UNK     0      62.603  76.367  65.263  0.00  0.00    -0.021 C 
HETATM    9  C   UNK     0      61.456  77.090  64.490  0.00  0.00     0.019 C 
HETATM   10  C   UNK     0      63.911  76.540  64.433  0.00  0.00     0.019 C 
HETATM   11  C   UNK     0      62.820  77.203  66.566  0.00  0.00     0.019 C 
ENDBRANCH   3   8
ENDBRANCH   1   2
BRANCH   1  12
HETATM   12  C   UNK     0      65.414  73.640  66.810  0.00  0.00     0.175 C 
BRANCH  12  13
HETATM   13  C   UNK     0      66.481  73.856  65.745  0.00  0.00     0.027 C 
BRANCH  13  14
HETATM   14  C   UNK     0      66.321  72.899  64.560  0.00  0.00     0.004 C 
BRANCH  14  15
HETATM   15  C   UNK     0      66.231  73.662  63.237  0.00  0.00     0.030 C 
BRANCH  15  16
HETATM   16  C   UNK     0      67.605  73.799  62.584  0.00  0.00     0.269 C 
BRANCH  16  17
HETATM   17  N   UNK     0      67.474  73.831  61.132  0.00  0.00     0.085 N 
HETATM   18  H   UNK     0      67.825  72.959  60.736  0.00  0.00     0.315 HD
BRANCH  17  19
HETATM   19  C   UNK     0      66.086  74.027  60.739  0.00  0.00     0.295 C 
BRANCH  19  20
HETATM   20  C   UNK     0      65.840  73.475  59.344  0.00  0.00     0.194 C 
BRANCH  20  21
HETATM   21  O   UNK     0      65.052  72.298  59.450  0.00  0.00    -0.399 OA
HETATM   22  H   UNK     0      64.197  72.487  59.028  0.00  0.00     0.209 HD
ENDBRANCH  20  21
ENDBRANCH  19  20
ENDBRANCH  17  19
ENDBRANCH  16  17
ENDBRANCH  15  16
ENDBRANCH  14  15
ENDBRANCH  13  14
ENDBRANCH  12  13
ENDBRANCH   1  12
TORSDOF 11
ENDMDL
MODEL 5
REMARK VINA RESULT:      -5.5      2.496      5.179
REMARK  11 active torsions:
REMARK  status: ('A' for Active; 'I' for Inactive)
REMARK    1  A    between atoms: O_1  and  C_11 
REMARK    2  A    between atoms: O_1  and  C_13 
REMARK    3  A    between atoms: O_2  and  C_20 
REMARK    4  A    between atoms: N_3  and  C_15 
REMARK    5  A    between atoms: N_3  and  C_19 
REMARK    6  A    between atoms: C_4  and  C_5 
REMARK    7  A    between atoms: C_9  and  C_10 
REMARK    8  A    between atoms: C_9  and  C_12 
REMARK    9  A    between atoms: C_10  and  C_13 
REMARK   10  A    between atoms: C_12  and  C_15 
REMARK   11  A    between atoms: C_19  and  C_20 
ROOT
HETATM    1  O   UNK     0      63.864  74.440  62.847  0.00  0.00    -0.351 OA
ENDROOT
BRANCH   1   2
HETATM    2  C   UNK     0      63.185  73.854  63.885  0.00  0.00     0.075 A 
HETATM    3  C   UNK     0      62.887  74.577  65.040  0.00  0.00    -0.017 A 
HETATM    4  C   UNK     0      62.195  73.965  66.086  0.00  0.00     0.011 A 
HETATM    5  C   UNK     0      61.802  72.631  65.976  0.00  0.00     0.001 A 
HETATM    6  C   UNK     0      62.101  71.908  64.821  0.00  0.00     0.003 A 
HETATM    7  C   UNK     0      62.793  72.520  63.775  0.00  0.00     0.037 A 
BRANCH   3   8
HETATM    8  C   UNK     0      63.299  76.005  65.174  0.00  0.00    -0.021 C 
HETATM    9  C   UNK     0      62.948  76.563  66.588  0.00  0.00     0.019 C 
HETATM   10  C   UNK     0      62.579  76.902  64.122  0.00  0.00     0.019 C 
HETATM   11  C   UNK     0      64.827  76.281  64.985  0.00  0.00     0.019 C 
ENDBRANCH   3   8
ENDBRANCH   1   2
BRANCH   1  12
HETATM   12  C   UNK     0      64.776  73.618  62.133  0.00  0.00     0.175 C 
BRANCH  12  13
HETATM   13  C   UNK     0      65.950  74.453  61.636  0.00  0.00     0.027 C 
BRANCH  13  14
HETATM   14  C   UNK     0      67.299  73.792  61.933  0.00  0.00     0.004 C 
BRANCH  14  15
HETATM   15  C   UNK     0      67.183  72.782  63.076  0.00  0.00     0.030 C 
BRANCH  15  16
HETATM   16  C   UNK     0      67.808  73.327  64.360  0.00  0.00     0.269 C 
BRANCH  16  17
HETATM   17  N   UNK     0      69.106  73.926  64.076  0.00  0.00     0.085 N 
HETATM   18  H   UNK     0      69.060  74.934  64.226  0.00  0.00     0.315 HD
BRANCH  17  19
HETATM   19  C   UNK     0      70.142  73.350  64.923  0.00  0.00     0.295 C 
BRANCH  19  20
HETATM   20  C   UNK     0      70.847  72.209  64.209  0.00  0.00     0.194 C 
BRANCH  20  21
HETATM   21  O   UNK     0      70.941  71.102  65.095  0.00  0.00    -0.399 OA
HETATM   22  H   UNK     0      71.442  70.408  64.634  0.00  0.00     0.209 HD
ENDBRANCH  20  21
ENDBRANCH  19  20
ENDBRANCH  17  19
ENDBRANCH  16  17
ENDBRANCH  15  16
ENDBRANCH  14  15
ENDBRANCH  13  14
ENDBRANCH  12  13
ENDBRANCH   1  12
TORSDOF 11
ENDMDL
MODEL 6
REMARK VINA RESULT:      -5.4     20.668     23.861
REMARK  11 active torsions:
REMARK  status: ('A' for Active; 'I' for Inactive)
REMARK    1  A    between atoms: O_1  and  C_11 
REMARK    2  A    between atoms: O_1  and  C_13 
REMARK    3  A    between atoms: O_2  and  C_20 
REMARK    4  A    between atoms: N_3  and  C_15 
REMARK    5  A    between atoms: N_3  and  C_19 
REMARK    6  A    between atoms: C_4  and  C_5 
REMARK    7  A    between atoms: C_9  and  C_10 
REMARK    8  A    between atoms: C_9  and  C_12 
REMARK    9  A    between atoms: C_10  and  C_13 
REMARK   10  A    between atoms: C_12  and  C_15 
REMARK   11  A    between atoms: C_19  and  C_20 
ROOT
HETATM    1  O   UNK     0      55.455  51.817  68.621  0.00  0.00    -0.351 OA
ENDROOT
BRANCH   1   2
HETATM    2  C   UNK     0      54.283  52.175  68.005  0.00  0.00     0.075 A 
HETATM    3  C   UNK     0      53.359  51.207  67.612  0.00  0.00    -0.017 A 
HETATM    4  C   UNK     0      52.172  51.589  66.986  0.00  0.00     0.011 A 
HETATM    5  C   UNK     0      51.910  52.939  66.753  0.00  0.00     0.001 A 
HETATM    6  C   UNK     0      52.835  53.907  67.144  0.00  0.00     0.003 A 
HETATM    7  C   UNK     0      54.022  53.525  67.770  0.00  0.00     0.037 A 
BRANCH   3   8
HETATM    8  C   UNK     0      53.623  49.758  67.855  0.00  0.00    -0.021 C 
HETATM    9  C   UNK     0      54.611  49.179  66.795  0.00  0.00     0.019 C 
HETATM   10  C   UNK     0      52.308  48.923  67.778  0.00  0.00     0.019 C 
HETATM   11  C   UNK     0      54.255  49.416  69.244  0.00  0.00     0.019 C 
ENDBRANCH   3   8
ENDBRANCH   1   2
BRANCH   1  12
HETATM   12  C   UNK     0      56.641  52.446  68.157  0.00  0.00     0.175 C 
BRANCH  12  13
HETATM   13  C   UNK     0      57.107  51.787  66.865  0.00  0.00     0.027 C 
BRANCH  13  14
HETATM   14  C   UNK     0      57.025  52.737  65.666  0.00  0.00     0.004 C 
BRANCH  14  15
HETATM   15  C   UNK     0      57.277  54.186  66.087  0.00  0.00     0.030 C 
BRANCH  15  16
HETATM   16  C   UNK     0      56.705  55.166  65.065  0.00  0.00     0.269 C 
BRANCH  16  17
HETATM   17  N   UNK     0      55.414  54.694  64.578  0.00  0.00     0.085 N 
HETATM   18  H   UNK     0      54.777  54.563  65.364  0.00  0.00     0.315 HD
BRANCH  17  19
HETATM   19  C   UNK     0      54.840  55.637  63.629  0.00  0.00     0.295 C 
BRANCH  19  20
HETATM   20  C   UNK     0      55.467  57.012  63.791  0.00  0.00     0.194 C 
BRANCH  20  21
HETATM   21  O   UNK     0      54.777  57.931  62.955  0.00  0.00    -0.399 OA
HETATM   22  H   UNK     0      53.835  57.880  63.191  0.00  0.00     0.209 HD
ENDBRANCH  20  21
ENDBRANCH  19  20
ENDBRANCH  17  19
ENDBRANCH  16  17
ENDBRANCH  15  16
ENDBRANCH  14  15
ENDBRANCH  13  14
ENDBRANCH  12  13
ENDBRANCH   1  12
TORSDOF 11
ENDMDL
MODEL 7
REMARK VINA RESULT:      -5.3     21.342     24.451
REMARK  11 active torsions:
REMARK  status: ('A' for Active; 'I' for Inactive)
REMARK    1  A    between atoms: O_1  and  C_11 
REMARK    2  A    between atoms: O_1  and  C_13 
REMARK    3  A    between atoms: O_2  and  C_20 
REMARK    4  A    between atoms: N_3  and  C_15 
REMARK    5  A    between atoms: N_3  and  C_19 
REMARK    6  A    between atoms: C_4  and  C_5 
REMARK    7  A    between atoms: C_9  and  C_10 
REMARK    8  A    between atoms: C_9  and  C_12 
REMARK    9  A    between atoms: C_10  and  C_13 
REMARK   10  A    between atoms: C_12  and  C_15 
REMARK   11  A    between atoms: C_19  and  C_20 
ROOT
HETATM    1  O   UNK     0      53.644  51.390  66.944  0.00  0.00    -0.351 OA
ENDROOT
BRANCH   1   2
HETATM    2  C   UNK     0      53.591  50.330  67.814  0.00  0.00     0.075 A 
HETATM    3  C   UNK     0      54.684  50.014  68.620  0.00  0.00    -0.017 A 
HETATM    4  C   UNK     0      54.613  48.932  69.499  0.00  0.00     0.011 A 
HETATM    5  C   UNK     0      53.448  48.169  69.571  0.00  0.00     0.001 A 
HETATM    6  C   UNK     0      52.354  48.485  68.764  0.00  0.00     0.003 A 
HETATM    7  C   UNK     0      52.426  49.566  67.885  0.00  0.00     0.037 A 
BRANCH   3   8
HETATM    8  C   UNK     0      55.938  50.821  68.556  0.00  0.00    -0.021 C 
HETATM    9  C   UNK     0      55.745  52.217  69.226  0.00  0.00     0.019 C 
HETATM   10  C   UNK     0      56.379  51.064  67.081  0.00  0.00     0.019 C 
HETATM   11  C   UNK     0      57.180  50.187  69.265  0.00  0.00     0.019 C 
ENDBRANCH   3   8
ENDBRANCH   1   2
BRANCH   1  12
HETATM   12  C   UNK     0      52.419  52.050  66.662  0.00  0.00     0.175 C 
BRANCH  12  13
HETATM   13  C   UNK     0      52.690  53.479  66.208  0.00  0.00     0.027 C 
BRANCH  13  14
HETATM   14  C   UNK     0      54.040  54.000  66.708  0.00  0.00     0.004 C 
BRANCH  14  15
HETATM   15  C   UNK     0      54.918  54.471  65.547  0.00  0.00     0.030 C 
BRANCH  15  16
HETATM   16  C   UNK     0      54.249  54.195  64.202  0.00  0.00     0.269 C 
BRANCH  16  17
HETATM   17  N   UNK     0      54.137  55.427  63.430  0.00  0.00     0.085 N 
HETATM   18  H   UNK     0      53.498  56.070  63.899  0.00  0.00     0.315 HD
BRANCH  17  19
HETATM   19  C   UNK     0      55.439  56.058  63.266  0.00  0.00     0.295 C 
BRANCH  19  20
HETATM   20  C   UNK     0      55.374  57.530  63.641  0.00  0.00     0.194 C 
BRANCH  20  21
HETATM   21  O   UNK     0      54.553  58.206  62.699  0.00  0.00    -0.399 OA
HETATM   22  H   UNK     0      53.630  58.000  62.926  0.00  0.00     0.209 HD
ENDBRANCH  20  21
ENDBRANCH  19  20
ENDBRANCH  17  19
ENDBRANCH  16  17
ENDBRANCH  15  16
ENDBRANCH  14  15
ENDBRANCH  13  14
ENDBRANCH  12  13
ENDBRANCH   1  12
TORSDOF 11
ENDMDL
MODEL 8
REMARK VINA RESULT:      -5.2     20.361     23.487
REMARK  11 active torsions:
REMARK  status: ('A' for Active; 'I' for Inactive)
REMARK    1  A    between atoms: O_1  and  C_11 
REMARK    2  A    between atoms: O_1  and  C_13 
REMARK    3  A    between atoms: O_2  and  C_20 
REMARK    4  A    between atoms: N_3  and  C_15 
REMARK    5  A    between atoms: N_3  and  C_19 
REMARK    6  A    between atoms: C_4  and  C_5 
REMARK    7  A    between atoms: C_9  and  C_10 
REMARK    8  A    between atoms: C_9  and  C_12 
REMARK    9  A    between atoms: C_10  and  C_13 
REMARK   10  A    between atoms: C_12  and  C_15 
REMARK   11  A    between atoms: C_19  and  C_20 
ROOT
HETATM    1  O   UNK     0      56.493  52.582  66.281  0.00  0.00    -0.351 OA
ENDROOT
BRANCH   1   2
HETATM    2  C   UNK     0      56.279  51.795  67.384  0.00  0.00     0.075 A 
HETATM    3  C   UNK     0      54.984  51.490  67.803  0.00  0.00    -0.017 A 
HETATM    4  C   UNK     0      54.785  50.688  68.927  0.00  0.00     0.011 A 
HETATM    5  C   UNK     0      55.881  50.192  69.633  0.00  0.00     0.001 A 
HETATM    6  C   UNK     0      57.177  50.498  69.215  0.00  0.00     0.003 A 
HETATM    7  C   UNK     0      57.376  51.300  68.090  0.00  0.00     0.037 A 
BRANCH   3   8
HETATM    8  C   UNK     0      53.800  52.012  67.059  0.00  0.00    -0.021 C 
HETATM    9  C   UNK     0      53.484  53.485  67.464  0.00  0.00     0.019 C 
HETATM   10  C   UNK     0      52.527  51.160  67.353  0.00  0.00     0.019 C 
HETATM   11  C   UNK     0      53.941  52.029  65.502  0.00  0.00     0.019 C 
ENDBRANCH   3   8
ENDBRANCH   1   2
BRANCH   1  12
HETATM   12  C   UNK     0      57.090  53.851  66.506  0.00  0.00     0.175 C 
BRANCH  12  13
HETATM   13  C   UNK     0      56.932  54.727  65.269  0.00  0.00     0.027 C 
BRANCH  13  14
HETATM   14  C   UNK     0      55.576  55.437  65.229  0.00  0.00     0.004 C 
BRANCH  14  15
HETATM   15  C   UNK     0      54.868  55.209  63.892  0.00  0.00     0.030 C 
BRANCH  15  16
HETATM   16  C   UNK     0      55.214  56.308  62.890  0.00  0.00     0.269 C 
BRANCH  16  17
HETATM   17  N   UNK     0      54.882  55.882  61.536  0.00  0.00     0.085 N 
HETATM   18  H   UNK     0      55.657  56.093  60.908  0.00  0.00     0.315 HD
BRANCH  17  19
HETATM   19  C   UNK     0      54.591  54.455  61.496  0.00  0.00     0.295 C 
BRANCH  19  20
HETATM   20  C   UNK     0      54.482  53.969  60.060  0.00  0.00     0.194 C 
BRANCH  20  21
HETATM   21  O   UNK     0      55.566  54.502  59.313  0.00  0.00    -0.399 OA
HETATM   22  H   UNK     0      55.665  53.950  58.519  0.00  0.00     0.209 HD
ENDBRANCH  20  21
ENDBRANCH  19  20
ENDBRANCH  17  19
ENDBRANCH  16  17
ENDBRANCH  15  16
ENDBRANCH  14  15
ENDBRANCH  13  14
ENDBRANCH  12  13
ENDBRANCH   1  12
TORSDOF 11
ENDMDL
MODEL 9
REMARK VINA RESULT:      -5.2     21.603     23.667
REMARK  11 active torsions:
REMARK  status: ('A' for Active; 'I' for Inactive)
REMARK    1  A    between atoms: O_1  and  C_11 
REMARK    2  A    between atoms: O_1  and  C_13 
REMARK    3  A    between atoms: O_2  and  C_20 
REMARK    4  A    between atoms: N_3  and  C_15 
REMARK    5  A    between atoms: N_3  and  C_19 
REMARK    6  A    between atoms: C_4  and  C_5 
REMARK    7  A    between atoms: C_9  and  C_10 
REMARK    8  A    between atoms: C_9  and  C_12 
REMARK    9  A    between atoms: C_10  and  C_13 
REMARK   10  A    between atoms: C_12  and  C_15 
REMARK   11  A    between atoms: C_19  and  C_20 
ROOT
HETATM    1  O   UNK     0      59.525  58.016  48.741  0.00  0.00    -0.351 OA
ENDROOT
BRANCH   1   2
HETATM    2  C   UNK     0      59.978  58.277  47.473  0.00  0.00     0.075 A 
HETATM    3  C   UNK     0      60.241  57.237  46.581  0.00  0.00    -0.017 A 
HETATM    4  C   UNK     0      60.702  57.521  45.295  0.00  0.00     0.011 A 
HETATM    5  C   UNK     0      60.899  58.844  44.901  0.00  0.00     0.001 A 
HETATM    6  C   UNK     0      60.637  59.884  45.794  0.00  0.00     0.003 A 
HETATM    7  C   UNK     0      60.176  59.600  47.080  0.00  0.00     0.037 A 
BRANCH   3   8
HETATM    8  C   UNK     0      60.035  55.815  46.985  0.00  0.00    -0.021 C 
HETATM    9  C   UNK     0      58.671  55.630  47.720  0.00  0.00     0.019 C 
HETATM   10  C   UNK     0      61.159  55.333  47.952  0.00  0.00     0.019 C 
HETATM   11  C   UNK     0      60.019  54.781  45.812  0.00  0.00     0.019 C 
ENDBRANCH   3   8
ENDBRANCH   1   2
BRANCH   1  12
HETATM   12  C   UNK     0      60.225  58.634  49.811  0.00  0.00     0.175 C 
BRANCH  12  13
HETATM   13  C   UNK     0      59.719  58.095  51.144  0.00  0.00     0.027 C 
BRANCH  13  14
HETATM   14  C   UNK     0      59.698  56.564  51.180  0.00  0.00     0.004 C 
BRANCH  14  15
HETATM   15  C   UNK     0      58.622  56.046  52.136  0.00  0.00     0.030 C 
BRANCH  15  16
HETATM   16  C   UNK     0      57.533  57.093  52.361  0.00  0.00     0.269 C 
BRANCH  16  17
HETATM   17  N   UNK     0      56.935  56.926  53.680  0.00  0.00     0.085 N 
HETATM   18  H   UNK     0      55.972  57.265  53.667  0.00  0.00     0.315 HD
BRANCH  17  19
HETATM   19  C   UNK     0      56.958  55.529  54.089  0.00  0.00     0.295 C 
BRANCH  19  20
HETATM   20  C   UNK     0      57.144  55.412  55.593  0.00  0.00     0.194 C 
BRANCH  20  21
HETATM   21  O   UNK     0      56.071  56.082  56.240  0.00  0.00    -0.399 OA
HETATM   22  H   UNK     0      55.329  55.455  56.286  0.00  0.00     0.209 HD
ENDBRANCH  20  21
ENDBRANCH  19  20
ENDBRANCH  17  19
ENDBRANCH  16  17
ENDBRANCH  15  16
ENDBRANCH  14  15
ENDBRANCH  13  14
ENDBRANCH  12  13
ENDBRANCH   1  12
TORSDOF 11
ENDMDL
