MODEL 1
REMARK VINA RESULT:      -7.4      0.000      0.000
REMARK  5 active torsions:
REMARK  status: ('A' for Active; 'I' for Inactive)
REMARK    1  A    between atoms: O_3  and  C_33 
REMARK    2  A    between atoms: N_4  and  C_12 
REMARK    3  A    between atoms: N_5  and  C_16 
REMARK    4  A    between atoms: N_7  and  C_20 
REMARK    5  A    between atoms: C_15  and  C_17 
ROOT
HETATM    1  S   UNK     0      57.236  53.985  48.125  0.00  0.00    -0.080 SA
HETATM    2  N   UNK     0      59.321  55.219  47.018  0.00  0.00    -0.308 N 
HETATM    3  N   UNK     0      60.038  58.229  48.965  0.00  0.00    -0.191 NA
HETATM    4  C   UNK     0      58.353  56.247  49.059  0.00  0.00     0.127 C 
HETATM    5  C   UNK     0      58.437  55.308  48.103  0.00  0.00     0.106 A 
HETATM    6  C   UNK     0      59.012  54.106  46.215  0.00  0.00     0.020 A 
HETATM    7  C   UNK     0      57.969  53.375  46.657  0.00  0.00     0.077 A 
HETATM    8  C   UNK     0      59.820  53.712  45.019  0.00  0.00     0.069 C 
HETATM    9  C   UNK     0      59.292  57.341  48.997  0.00  0.00     0.106 C 
ENDROOT
BRANCH   4  10
HETATM   10  C   UNK     0      57.396  56.148  50.086  0.00  0.00     0.197 A 
HETATM   11  N   UNK     0      57.684  55.472  51.233  0.00  0.00    -0.124 N 
HETATM   12  C   UNK     0      56.565  55.564  52.006  0.00  0.00     0.729 A 
HETATM   13  N   UNK     0      55.645  56.256  51.369  0.00  0.00     0.044 NA
HETATM   14  N   UNK     0      56.173  56.627  50.149  0.00  0.00    -0.113 NA
BRANCH  11  15
HETATM   15  C   UNK     0      58.874  54.817  51.559  0.00  0.00     0.059 A 
HETATM   16  C   UNK     0      59.909  55.534  52.143  0.00  0.00     0.030 A 
HETATM   17  C   UNK     0      61.096  54.880  52.473  0.00  0.00     0.002 A 
HETATM   18  C   UNK     0      61.236  53.516  52.215  0.00  0.00     0.000 A 
HETATM   19  C   UNK     0      60.189  52.807  51.627  0.00  0.00     0.002 A 
HETATM   20  C   UNK     0      59.001  53.461  51.298  0.00  0.00     0.030 A 
ENDBRANCH  11  15
BRANCH  12  21
HETATM   21  N   UNK     0      56.511  54.981  53.253  0.00  0.00    -0.210 N 
HETATM   22  C   UNK     0      55.610  53.849  53.507  0.00  0.00     0.167 C 
HETATM   23  C   UNK     0      56.221  52.943  54.570  0.00  0.00     0.188 C 
HETATM   24  O   UNK     0      56.508  53.693  55.752  0.00  0.00    -0.388 OA
HETATM   25  C   UNK     0      57.471  54.713  55.483  0.00  0.00     0.188 C 
HETATM   26  C   UNK     0      56.931  55.705  54.457  0.00  0.00     0.167 C 
ENDBRANCH  12  21
ENDBRANCH   4  10
BRANCH   2  27
HETATM   27  C   UNK     0      60.399  56.113  46.779  0.00  0.00     0.040 A 
HETATM   28  C   UNK     0      60.253  57.183  45.884  0.00  0.00     0.033 A 
HETATM   29  C   UNK     0      61.312  58.059  45.649  0.00  0.00     0.039 A 
HETATM   30  C   UNK     0      62.529  57.877  46.307  0.00  0.00     0.068 A 
HETATM   31  C   UNK     0      62.686  56.816  47.199  0.00  0.00     0.039 A 
HETATM   32  C   UNK     0      61.627  55.939  47.434  0.00  0.00     0.033 A 
BRANCH  30  33
HETATM   33  O   UNK     0      63.562  58.733  46.079  0.00  0.00    -0.356 OA
HETATM   34  C   UNK     0      63.245  59.987  45.476  0.00  0.00     0.210 C 
ENDBRANCH  30  33
ENDBRANCH   2  27
TORSDOF 5
ENDMDL
MODEL 2
REMARK VINA RESULT:      -7.3     24.198     28.968
REMARK  5 active torsions:
REMARK  status: ('A' for Active; 'I' for Inactive)
REMARK    1  A    between atoms: O_3  and  C_33 
REMARK    2  A    between atoms: N_4  and  C_12 
REMARK    3  A    between atoms: N_5  and  C_16 
REMARK    4  A    between atoms: N_7  and  C_20 
REMARK    5  A    between atoms: C_15  and  C_17 
ROOT
HETATM    1  S   UNK     0      47.906  58.375  77.844  0.00  0.00    -0.080 SA
HETATM    2  N   UNK     0      50.223  58.331  79.158  0.00  0.00    -0.308 N 
HETATM    3  N   UNK     0      52.815  57.134  76.874  0.00  0.00    -0.191 NA
HETATM    4  C   UNK     0      50.265  57.648  76.772  0.00  0.00     0.127 C 
HETATM    5  C   UNK     0      49.670  58.091  77.892  0.00  0.00     0.106 A 
HETATM    6  C   UNK     0      49.225  58.722  80.070  0.00  0.00     0.020 A 
HETATM    7  C   UNK     0      47.987  58.792  79.541  0.00  0.00     0.077 A 
HETATM    8  C   UNK     0      49.518  59.108  81.485  0.00  0.00     0.069 C 
HETATM    9  C   UNK     0      51.678  57.367  76.840  0.00  0.00     0.106 C 
ENDROOT
BRANCH   4  10
HETATM   10  C   UNK     0      49.532  57.485  75.582  0.00  0.00     0.197 A 
HETATM   11  N   UNK     0      49.513  58.473  74.645  0.00  0.00    -0.124 N 
HETATM   12  C   UNK     0      48.727  58.008  73.633  0.00  0.00     0.729 A 
HETATM   13  N   UNK     0      48.290  56.803  73.933  0.00  0.00     0.044 NA
HETATM   14  N   UNK     0      48.802  56.471  75.172  0.00  0.00    -0.113 NA
BRANCH  11  15
HETATM   15  C   UNK     0      50.160  59.711  74.700  0.00  0.00     0.059 A 
HETATM   16  C   UNK     0      51.426  59.844  74.147  0.00  0.00     0.030 A 
HETATM   17  C   UNK     0      52.070  61.080  74.198  0.00  0.00     0.002 A 
HETATM   18  C   UNK     0      51.442  62.170  74.800  0.00  0.00     0.000 A 
HETATM   19  C   UNK     0      50.169  62.024  75.352  0.00  0.00     0.002 A 
HETATM   20  C   UNK     0      49.524  60.787  75.301  0.00  0.00     0.030 A 
ENDBRANCH  11  15
BRANCH  12  21
HETATM   21  N   UNK     0      48.491  58.767  72.508  0.00  0.00    -0.210 N 
HETATM   22  C   UNK     0      47.327  59.661  72.446  0.00  0.00     0.167 C 
HETATM   23  C   UNK     0      47.658  60.863  71.569  0.00  0.00     0.188 C 
HETATM   24  O   UNK     0      48.086  60.428  70.277  0.00  0.00    -0.388 OA
HETATM   25  C   UNK     0      49.282  59.653  70.374  0.00  0.00     0.188 C 
HETATM   26  C   UNK     0      49.040  58.394  71.201  0.00  0.00     0.167 C 
ENDBRANCH  12  21
ENDBRANCH   4  10
BRANCH   2  27
HETATM   27  C   UNK     0      51.605  58.224  79.469  0.00  0.00     0.040 A 
HETATM   28  C   UNK     0      52.132  57.025  79.971  0.00  0.00     0.033 A 
HETATM   29  C   UNK     0      53.489  56.922  80.277  0.00  0.00     0.039 A 
HETATM   30  C   UNK     0      54.334  58.015  80.086  0.00  0.00     0.068 A 
HETATM   31  C   UNK     0      53.821  59.213  79.588  0.00  0.00     0.039 A 
HETATM   32  C   UNK     0      52.463  59.318  79.281  0.00  0.00     0.033 A 
BRANCH  30  33
HETATM   33  O   UNK     0      55.657  57.914  80.383  0.00  0.00    -0.356 OA
HETATM   34  C   UNK     0      56.372  59.132  80.589  0.00  0.00     0.210 C 
ENDBRANCH  30  33
ENDBRANCH   2  27
TORSDOF 5
ENDMDL
MODEL 3
REMARK VINA RESULT:      -7.1      3.475      5.240
REMARK  5 active torsions:
REMARK  status: ('A' for Active; 'I' for Inactive)
REMARK    1  A    between atoms: O_3  and  C_33 
REMARK    2  A    between atoms: N_4  and  C_12 
REMARK    3  A    between atoms: N_5  and  C_16 
REMARK    4  A    between atoms: N_7  and  C_20 
REMARK    5  A    between atoms: C_15  and  C_17 
ROOT
HETATM    1  S   UNK     0      57.649  55.598  49.547  0.00  0.00    -0.080 SA
HETATM    2  N   UNK     0      59.621  57.015  48.451  0.00  0.00    -0.308 N 
HETATM    3  N   UNK     0      59.963  55.994  44.957  0.00  0.00    -0.191 NA
HETATM    4  C   UNK     0      58.429  55.411  46.978  0.00  0.00     0.127 C 
HETATM    5  C   UNK     0      58.654  56.049  48.139  0.00  0.00     0.106 A 
HETATM    6  C   UNK     0      59.552  57.367  49.812  0.00  0.00     0.020 A 
HETATM    7  C   UNK     0      58.588  56.724  50.502  0.00  0.00     0.077 A 
HETATM    8  C   UNK     0      60.414  58.422  50.428  0.00  0.00     0.069 C 
HETATM    9  C   UNK     0      59.285  55.742  45.865  0.00  0.00     0.106 C 
ENDROOT
BRANCH   4  10
HETATM   10  C   UNK     0      57.386  54.474  46.860  0.00  0.00     0.197 A 
HETATM   11  N   UNK     0      57.643  53.141  46.972  0.00  0.00    -0.124 N 
HETATM   12  C   UNK     0      56.441  52.519  46.812  0.00  0.00     0.729 A 
HETATM   13  N   UNK     0      55.502  53.419  46.611  0.00  0.00     0.044 NA
HETATM   14  N   UNK     0      56.103  54.661  46.642  0.00  0.00    -0.113 NA
BRANCH  11  15
HETATM   15  C   UNK     0      58.878  52.528  47.205  0.00  0.00     0.059 A 
HETATM   16  C   UNK     0      59.639  52.099  46.127  0.00  0.00     0.030 A 
HETATM   17  C   UNK     0      60.873  51.490  46.359  0.00  0.00     0.002 A 
HETATM   18  C   UNK     0      61.333  51.319  47.664  0.00  0.00     0.000 A 
HETATM   19  C   UNK     0      60.558  51.756  48.739  0.00  0.00     0.002 A 
HETATM   20  C   UNK     0      59.323  52.364  48.508  0.00  0.00     0.030 A 
ENDBRANCH  11  15
BRANCH  12  21
HETATM   21  N   UNK     0      56.336  51.146  46.868  0.00  0.00    -0.210 N 
HETATM   22  C   UNK     0      56.274  50.354  45.633  0.00  0.00     0.167 C 
HETATM   23  C   UNK     0      56.908  48.989  45.873  0.00  0.00     0.188 C 
HETATM   24  O   UNK     0      56.275  48.338  46.976  0.00  0.00    -0.388 OA
HETATM   25  C   UNK     0      56.454  49.088  48.178  0.00  0.00     0.188 C 
HETATM   26  C   UNK     0      55.808  50.465  48.054  0.00  0.00     0.167 C 
ENDBRANCH  12  21
ENDBRANCH   4  10
BRANCH   2  27
HETATM   27  C   UNK     0      60.525  57.585  47.514  0.00  0.00     0.040 A 
HETATM   28  C   UNK     0      60.136  58.671  46.717  0.00  0.00     0.033 A 
HETATM   29  C   UNK     0      61.023  59.229  45.798  0.00  0.00     0.039 A 
HETATM   30  C   UNK     0      62.310  58.707  45.665  0.00  0.00     0.068 A 
HETATM   31  C   UNK     0      62.709  57.627  46.451  0.00  0.00     0.039 A 
HETATM   32  C   UNK     0      61.821  57.068  47.372  0.00  0.00     0.033 A 
BRANCH  30  33
HETATM   33  O   UNK     0      63.177  59.253  44.769  0.00  0.00    -0.356 OA
HETATM   34  C   UNK     0      63.910  60.402  45.191  0.00  0.00     0.210 C 
ENDBRANCH  30  33
ENDBRANCH   2  27
TORSDOF 5
ENDMDL
MODEL 4
REMARK VINA RESULT:      -7.0      2.934      8.929
REMARK  5 active torsions:
REMARK  status: ('A' for Active; 'I' for Inactive)
REMARK    1  A    between atoms: O_3  and  C_33 
REMARK    2  A    between atoms: N_4  and  C_12 
REMARK    3  A    between atoms: N_5  and  C_16 
REMARK    4  A    between atoms: N_7  and  C_20 
REMARK    5  A    between atoms: C_15  and  C_17 
ROOT
HETATM    1  S   UNK     0      59.229  51.714  53.272  0.00  0.00    -0.080 SA
HETATM    2  N   UNK     0      57.433  51.952  55.225  0.00  0.00    -0.308 N 
HETATM    3  N   UNK     0      57.108  55.497  56.059  0.00  0.00    -0.191 NA
HETATM    4  C   UNK     0      58.443  54.047  54.358  0.00  0.00     0.127 C 
HETATM    5  C   UNK     0      58.260  52.717  54.390  0.00  0.00     0.106 A 
HETATM    6  C   UNK     0      57.600  50.579  54.968  0.00  0.00     0.020 A 
HETATM    7  C   UNK     0      58.487  50.302  53.991  0.00  0.00     0.077 A 
HETATM    8  C   UNK     0      56.805  49.516  55.657  0.00  0.00     0.069 C 
HETATM    9  C   UNK     0      57.698  54.840  55.305  0.00  0.00     0.106 C 
ENDROOT
BRANCH   4  10
HETATM   10  C   UNK     0      59.316  54.634  53.423  0.00  0.00     0.197 A 
HETATM   11  N   UNK     0      58.840  55.092  52.232  0.00  0.00    -0.124 N 
HETATM   12  C   UNK     0      59.922  55.592  51.570  0.00  0.00     0.729 A 
HETATM   13  N   UNK     0      60.999  55.446  52.313  0.00  0.00     0.044 NA
HETATM   14  N   UNK     0      60.612  54.838  53.491  0.00  0.00    -0.113 NA
BRANCH  11  15
HETATM   15  C   UNK     0      57.520  55.062  51.773  0.00  0.00     0.059 A 
HETATM   16  C   UNK     0      56.694  56.153  52.004  0.00  0.00     0.030 A 
HETATM   17  C   UNK     0      55.377  56.125  51.543  0.00  0.00     0.002 A 
HETATM   18  C   UNK     0      54.902  55.008  50.856  0.00  0.00     0.000 A 
HETATM   19  C   UNK     0      55.743  53.918  50.631  0.00  0.00     0.002 A 
HETATM   20  C   UNK     0      57.060  53.945  51.092  0.00  0.00     0.030 A 
ENDBRANCH  11  15
BRANCH  12  21
HETATM   21  N   UNK     0      59.797  56.144  50.314  0.00  0.00    -0.210 N 
HETATM   22  C   UNK     0      60.145  55.362  49.121  0.00  0.00     0.167 C 
HETATM   23  C   UNK     0      59.272  55.804  47.953  0.00  0.00     0.188 C 
HETATM   24  O   UNK     0      59.400  57.212  47.745  0.00  0.00    -0.388 OA
HETATM   25  C   UNK     0      58.948  57.936  48.889  0.00  0.00     0.188 C 
HETATM   26  C   UNK     0      59.796  57.596  50.110  0.00  0.00     0.167 C 
ENDBRANCH  12  21
ENDBRANCH   4  10
BRANCH   2  27
HETATM   27  C   UNK     0      56.528  52.491  56.179  0.00  0.00     0.040 A 
HETATM   28  C   UNK     0      55.225  52.848  55.802  0.00  0.00     0.033 A 
HETATM   29  C   UNK     0      54.337  53.378  56.738  0.00  0.00     0.039 A 
HETATM   30  C   UNK     0      54.741  53.557  58.061  0.00  0.00     0.068 A 
HETATM   31  C   UNK     0      56.035  53.206  58.447  0.00  0.00     0.039 A 
HETATM   32  C   UNK     0      56.924  52.676  57.512  0.00  0.00     0.033 A 
BRANCH  30  33
HETATM   33  O   UNK     0      53.875  54.072  58.974  0.00  0.00    -0.356 OA
HETATM   34  C   UNK     0      54.419  54.477  60.230  0.00  0.00     0.210 C 
ENDBRANCH  30  33
ENDBRANCH   2  27
TORSDOF 5
ENDMDL
MODEL 5
REMARK VINA RESULT:      -6.9      2.744      8.571
REMARK  5 active torsions:
REMARK  status: ('A' for Active; 'I' for Inactive)
REMARK    1  A    between atoms: O_3  and  C_33 
REMARK    2  A    between atoms: N_4  and  C_12 
REMARK    3  A    between atoms: N_5  and  C_16 
REMARK    4  A    between atoms: N_7  and  C_20 
REMARK    5  A    between atoms: C_15  and  C_17 
ROOT
HETATM    1  S   UNK     0      57.528  55.840  53.408  0.00  0.00    -0.080 SA
HETATM    2  N   UNK     0      55.527  54.143  53.865  0.00  0.00    -0.308 N 
HETATM    3  N   UNK     0      53.734  53.609  50.724  0.00  0.00    -0.191 NA
HETATM    4  C   UNK     0      55.813  54.949  51.536  0.00  0.00     0.127 C 
HETATM    5  C   UNK     0      56.145  54.865  52.834  0.00  0.00     0.106 A 
HETATM    6  C   UNK     0      56.159  54.394  55.097  0.00  0.00     0.020 A 
HETATM    7  C   UNK     0      57.204  55.244  55.021  0.00  0.00     0.077 A 
HETATM    8  C   UNK     0      55.765  53.718  56.371  0.00  0.00     0.069 C 
HETATM    9  C   UNK     0      54.660  54.202  51.097  0.00  0.00     0.106 C 
ENDROOT
BRANCH   4  10
HETATM   10  C   UNK     0      56.579  55.724  50.644  0.00  0.00     0.197 A 
HETATM   11  N   UNK     0      57.574  55.149  49.913  0.00  0.00    -0.124 N 
HETATM   12  C   UNK     0      58.108  56.155  49.163  0.00  0.00     0.729 A 
HETATM   13  N   UNK     0      57.477  57.280  49.422  0.00  0.00     0.044 NA
HETATM   14  N   UNK     0      56.505  57.006  50.363  0.00  0.00    -0.113 NA
BRANCH  11  15
HETATM   15  C   UNK     0      57.971  53.810  49.920  0.00  0.00     0.059 A 
HETATM   16  C   UNK     0      57.391  52.921  49.027  0.00  0.00     0.030 A 
HETATM   17  C   UNK     0      57.791  51.584  49.032  0.00  0.00     0.002 A 
HETATM   18  C   UNK     0      58.767  51.151  49.929  0.00  0.00     0.000 A 
HETATM   19  C   UNK     0      59.342  52.054  50.822  0.00  0.00     0.002 A 
HETATM   20  C   UNK     0      58.943  53.391  50.818  0.00  0.00     0.030 A 
ENDBRANCH  11  15
BRANCH  12  21
HETATM   21  N   UNK     0      59.153  55.919  48.296  0.00  0.00    -0.210 N 
HETATM   22  C   UNK     0      60.507  56.386  48.620  0.00  0.00     0.167 C 
HETATM   23  C   UNK     0      61.530  55.434  48.011  0.00  0.00     0.188 C 
HETATM   24  O   UNK     0      61.313  55.310  46.605  0.00  0.00    -0.388 OA
HETATM   25  C   UNK     0      60.026  54.750  46.338  0.00  0.00     0.188 C 
HETATM   26  C   UNK     0      58.924  55.659  46.872  0.00  0.00     0.167 C 
ENDBRANCH  12  21
ENDBRANCH   4  10
BRANCH   2  27
HETATM   27  C   UNK     0      54.432  53.255  53.686  0.00  0.00     0.040 A 
HETATM   28  C   UNK     0      53.114  53.704  53.854  0.00  0.00     0.033 A 
HETATM   29  C   UNK     0      52.040  52.832  53.679  0.00  0.00     0.039 A 
HETATM   30  C   UNK     0      52.272  51.501  53.334  0.00  0.00     0.068 A 
HETATM   31  C   UNK     0      53.577  51.041  53.165  0.00  0.00     0.039 A 
HETATM   32  C   UNK     0      54.653  51.914  53.340  0.00  0.00     0.033 A 
BRANCH  30  33
HETATM   33  O   UNK     0      51.224  50.650  53.162  0.00  0.00    -0.356 OA
HETATM   34  C   UNK     0      51.456  49.269  53.439  0.00  0.00     0.210 C 
ENDBRANCH  30  33
ENDBRANCH   2  27
TORSDOF 5
ENDMDL
MODEL 6
REMARK VINA RESULT:      -6.8      2.174      7.934
REMARK  5 active torsions:
REMARK  status: ('A' for Active; 'I' for Inactive)
REMARK    1  A    between atoms: O_3  and  C_33 
REMARK    2  A    between atoms: N_4  and  C_12 
REMARK    3  A    between atoms: N_5  and  C_16 
REMARK    4  A    between atoms: N_7  and  C_20 
REMARK    5  A    between atoms: C_15  and  C_17 
ROOT
HETATM    1  S   UNK     0      60.284  55.756  51.749  0.00  0.00    -0.080 SA
HETATM    2  N   UNK     0      57.966  54.461  51.957  0.00  0.00    -0.308 N 
HETATM    3  N   UNK     0      55.647  55.856  49.499  0.00  0.00    -0.191 NA
HETATM    4  C   UNK     0      58.124  56.219  50.212  0.00  0.00     0.127 C 
HETATM    5  C   UNK     0      58.606  55.459  51.209  0.00  0.00     0.106 A 
HETATM    6  C   UNK     0      58.820  53.964  52.958  0.00  0.00     0.020 A 
HETATM    7  C   UNK     0      60.044  54.530  52.974  0.00  0.00     0.077 A 
HETATM    8  C   UNK     0      58.441  52.845  53.876  0.00  0.00     0.069 C 
HETATM    9  C   UNK     0      56.750  56.009  49.825  0.00  0.00     0.106 C 
ENDROOT
BRANCH   4  10
HETATM   10  C   UNK     0      58.940  57.167  49.568  0.00  0.00     0.197 A 
HETATM   11  N   UNK     0      59.655  56.821  48.461  0.00  0.00    -0.124 N 
HETATM   12  C   UNK     0      60.327  57.946  48.089  0.00  0.00     0.729 A 
HETATM   13  N   UNK     0      60.041  58.926  48.920  0.00  0.00     0.044 NA
HETATM   14  N   UNK     0      59.159  58.430  49.859  0.00  0.00    -0.113 NA
BRANCH  11  15
HETATM   15  C   UNK     0      59.698  55.574  47.831  0.00  0.00     0.059 A 
HETATM   16  C   UNK     0      60.680  54.662  48.190  0.00  0.00     0.030 A 
HETATM   17  C   UNK     0      60.720  53.416  47.564  0.00  0.00     0.002 A 
HETATM   18  C   UNK     0      59.779  53.095  46.586  0.00  0.00     0.000 A 
HETATM   19  C   UNK     0      58.797  54.021  46.234  0.00  0.00     0.002 A 
HETATM   20  C   UNK     0      58.756  55.267  46.860  0.00  0.00     0.030 A 
ENDBRANCH  11  15
BRANCH  12  21
HETATM   21  N   UNK     0      61.158  57.949  46.990  0.00  0.00    -0.210 N 
HETATM   22  C   UNK     0      60.598  58.045  45.635  0.00  0.00     0.167 C 
HETATM   23  C   UNK     0      61.588  58.767  44.728  0.00  0.00     0.188 C 
HETATM   24  O   UNK     0      62.854  58.106  44.754  0.00  0.00    -0.388 OA
HETATM   25  C   UNK     0      63.412  58.132  46.068  0.00  0.00     0.188 C 
HETATM   26  C   UNK     0      62.511  57.388  47.049  0.00  0.00     0.167 C 
ENDBRANCH  12  21
ENDBRANCH   4  10
BRANCH   2  27
HETATM   27  C   UNK     0      56.645  53.994  51.718  0.00  0.00     0.040 A 
HETATM   28  C   UNK     0      55.561  54.523  52.434  0.00  0.00     0.033 A 
HETATM   29  C   UNK     0      54.266  54.064  52.199  0.00  0.00     0.039 A 
HETATM   30  C   UNK     0      54.039  53.071  51.246  0.00  0.00     0.068 A 
HETATM   31  C   UNK     0      55.108  52.537  50.528  0.00  0.00     0.039 A 
HETATM   32  C   UNK     0      56.405  52.996  50.762  0.00  0.00     0.033 A 
BRANCH  30  33
HETATM   33  O   UNK     0      52.775  52.624  51.016  0.00  0.00    -0.356 OA
HETATM   34  C   UNK     0      52.055  52.106  52.134  0.00  0.00     0.210 C 
ENDBRANCH  30  33
ENDBRANCH   2  27
TORSDOF 5
ENDMDL
MODEL 7
REMARK VINA RESULT:      -6.8      4.126      6.619
REMARK  5 active torsions:
REMARK  status: ('A' for Active; 'I' for Inactive)
REMARK    1  A    between atoms: O_3  and  C_33 
REMARK    2  A    between atoms: N_4  and  C_12 
REMARK    3  A    between atoms: N_5  and  C_16 
REMARK    4  A    between atoms: N_7  and  C_20 
REMARK    5  A    between atoms: C_15  and  C_17 
ROOT
HETATM    1  S   UNK     0      53.270  52.892  53.053  0.00  0.00    -0.080 SA
HETATM    2  N   UNK     0      55.204  54.484  52.148  0.00  0.00    -0.308 N 
HETATM    3  N   UNK     0      57.083  55.753  55.016  0.00  0.00    -0.191 NA
HETATM    4  C   UNK     0      55.081  54.140  54.603  0.00  0.00     0.127 C 
HETATM    5  C   UNK     0      54.689  53.942  53.334  0.00  0.00     0.106 A 
HETATM    6  C   UNK     0      54.447  54.065  51.039  0.00  0.00     0.020 A 
HETATM    7  C   UNK     0      53.423  53.243  51.346  0.00  0.00     0.077 A 
HETATM    8  C   UNK     0      54.791  54.428  49.629  0.00  0.00     0.069 C 
HETATM    9  C   UNK     0      56.192  55.036  54.820  0.00  0.00     0.106 C 
ENDROOT
BRANCH   4  10
HETATM   10  C   UNK     0      54.439  53.483  55.668  0.00  0.00     0.197 A 
HETATM   11  N   UNK     0      55.008  52.387  56.244  0.00  0.00    -0.124 N 
HETATM   12  C   UNK     0      54.147  51.998  57.227  0.00  0.00     0.729 A 
HETATM   13  N   UNK     0      53.110  52.809  57.251  0.00  0.00     0.044 NA
HETATM   14  N   UNK     0      53.297  53.752  56.260  0.00  0.00    -0.113 NA
BRANCH  11  15
HETATM   15  C   UNK     0      56.220  51.781  55.905  0.00  0.00     0.059 A 
HETATM   16  C   UNK     0      56.255  50.856  54.871  0.00  0.00     0.030 A 
HETATM   17  C   UNK     0      57.466  50.253  54.531  0.00  0.00     0.002 A 
HETATM   18  C   UNK     0      58.629  50.581  55.228  0.00  0.00     0.000 A 
HETATM   19  C   UNK     0      58.581  51.512  56.265  0.00  0.00     0.002 A 
HETATM   20  C   UNK     0      57.370  52.115  56.606  0.00  0.00     0.030 A 
ENDBRANCH  11  15
BRANCH  12  21
HETATM   21  N   UNK     0      54.418  50.904  58.019  0.00  0.00    -0.210 N 
HETATM   22  C   UNK     0      53.753  49.620  57.765  0.00  0.00     0.167 C 
HETATM   23  C   UNK     0      54.679  48.480  58.172  0.00  0.00     0.188 C 
HETATM   24  O   UNK     0      55.079  48.632  59.535  0.00  0.00    -0.388 OA
HETATM   25  C   UNK     0      55.817  49.841  59.714  0.00  0.00     0.188 C 
HETATM   26  C   UNK     0      54.955  51.052  59.375  0.00  0.00     0.167 C 
ENDBRANCH  12  21
ENDBRANCH   4  10
BRANCH   2  27
HETATM   27  C   UNK     0      56.353  55.318  52.073  0.00  0.00     0.040 A 
HETATM   28  C   UNK     0      57.635  54.758  51.982  0.00  0.00     0.033 A 
HETATM   29  C   UNK     0      58.762  55.577  51.910  0.00  0.00     0.039 A 
HETATM   30  C   UNK     0      58.619  56.964  51.926  0.00  0.00     0.068 A 
HETATM   31  C   UNK     0      57.349  57.533  52.016  0.00  0.00     0.039 A 
HETATM   32  C   UNK     0      56.221  56.715  52.089  0.00  0.00     0.033 A 
BRANCH  30  33
HETATM   33  O   UNK     0      59.718  57.763  51.854  0.00  0.00    -0.356 OA
HETATM   34  C   UNK     0      60.277  57.983  50.559  0.00  0.00     0.210 C 
ENDBRANCH  30  33
ENDBRANCH   2  27
TORSDOF 5
ENDMDL
MODEL 8
REMARK VINA RESULT:      -6.7      2.098      8.303
REMARK  5 active torsions:
REMARK  status: ('A' for Active; 'I' for Inactive)
REMARK    1  A    between atoms: O_3  and  C_33 
REMARK    2  A    between atoms: N_4  and  C_12 
REMARK    3  A    between atoms: N_5  and  C_16 
REMARK    4  A    between atoms: N_7  and  C_20 
REMARK    5  A    between atoms: C_15  and  C_17 
ROOT
HETATM    1  S   UNK     0      55.410  52.863  51.264  0.00  0.00    -0.080 SA
HETATM    2  N   UNK     0      55.481  52.757  53.924  0.00  0.00    -0.308 N 
HETATM    3  N   UNK     0      57.079  55.807  55.152  0.00  0.00    -0.191 NA
HETATM    4  C   UNK     0      56.403  54.796  52.851  0.00  0.00     0.127 C 
HETATM    5  C   UNK     0      55.809  53.591  52.846  0.00  0.00     0.106 A 
HETATM    6  C   UNK     0      54.931  51.545  53.466  0.00  0.00     0.020 A 
HETATM    7  C   UNK     0      54.830  51.455  52.125  0.00  0.00     0.077 A 
HETATM    8  C   UNK     0      54.424  50.479  54.384  0.00  0.00     0.069 C 
HETATM    9  C   UNK     0      56.773  55.346  54.132  0.00  0.00     0.106 C 
ENDROOT
BRANCH   4  10
HETATM   10  C   UNK     0      56.635  55.491  51.649  0.00  0.00     0.197 A 
HETATM   11  N   UNK     0      57.853  55.430  51.043  0.00  0.00    -0.124 N 
HETATM   12  C   UNK     0      57.746  56.199  49.922  0.00  0.00     0.729 A 
HETATM   13  N   UNK     0      56.532  56.701  49.847  0.00  0.00     0.044 NA
HETATM   14  N   UNK     0      55.826  56.250  50.944  0.00  0.00    -0.113 NA
BRANCH  11  15
HETATM   15  C   UNK     0      58.984  54.730  51.472  0.00  0.00     0.059 A 
HETATM   16  C   UNK     0      59.183  53.426  51.040  0.00  0.00     0.030 A 
HETATM   17  C   UNK     0      60.314  52.728  51.465  0.00  0.00     0.002 A 
HETATM   18  C   UNK     0      61.233  53.341  52.317  0.00  0.00     0.000 A 
HETATM   19  C   UNK     0      61.021  54.652  52.744  0.00  0.00     0.002 A 
HETATM   20  C   UNK     0      59.890  55.350  52.319  0.00  0.00     0.030 A 
ENDBRANCH  11  15
BRANCH  12  21
HETATM   21  N   UNK     0      58.812  56.359  49.064  0.00  0.00    -0.210 N 
HETATM   22  C   UNK     0      59.651  57.563  49.138  0.00  0.00     0.167 C 
HETATM   23  C   UNK     0      61.074  57.214  48.720  0.00  0.00     0.188 C 
HETATM   24  O   UNK     0      61.076  56.622  47.420  0.00  0.00    -0.388 OA
HETATM   25  C   UNK     0      60.341  55.398  47.420  0.00  0.00     0.188 C 
HETATM   26  C   UNK     0      58.881  55.649  47.784  0.00  0.00     0.167 C 
ENDBRANCH  12  21
ENDBRANCH   4  10
BRANCH   2  27
HETATM   27  C   UNK     0      55.650  53.100  55.293  0.00  0.00     0.040 A 
HETATM   28  C   UNK     0      54.665  53.833  55.971  0.00  0.00     0.033 A 
HETATM   29  C   UNK     0      54.833  54.171  57.314  0.00  0.00     0.039 A 
HETATM   30  C   UNK     0      55.987  53.780  57.993  0.00  0.00     0.068 A 
HETATM   31  C   UNK     0      56.974  53.052  57.329  0.00  0.00     0.039 A 
HETATM   32  C   UNK     0      56.807  52.713  55.986  0.00  0.00     0.033 A 
BRANCH  30  33
HETATM   33  O   UNK     0      56.150  54.108  59.304  0.00  0.00    -0.356 OA
HETATM   34  C   UNK     0      55.006  53.993  60.149  0.00  0.00     0.210 C 
ENDBRANCH  30  33
ENDBRANCH   2  27
TORSDOF 5
ENDMDL
MODEL 9
REMARK VINA RESULT:      -6.6     33.133     34.828
REMARK  5 active torsions:
REMARK  status: ('A' for Active; 'I' for Inactive)
REMARK    1  A    between atoms: O_3  and  C_33 
REMARK    2  A    between atoms: N_4  and  C_12 
REMARK    3  A    between atoms: N_5  and  C_16 
REMARK    4  A    between atoms: N_7  and  C_20 
REMARK    5  A    between atoms: C_15  and  C_17 
ROOT
HETATM    1  S   UNK     0      48.508  84.745  57.150  0.00  0.00    -0.080 SA
HETATM    2  N   UNK     0      48.686  87.330  57.768  0.00  0.00    -0.308 N 
HETATM    3  N   UNK     0      45.996  89.109  56.047  0.00  0.00    -0.191 NA
HETATM    4  C   UNK     0      46.819  86.650  56.281  0.00  0.00     0.127 C 
HETATM    5  C   UNK     0      47.899  86.422  57.046  0.00  0.00     0.106 A 
HETATM    6  C   UNK     0      49.771  86.673  58.378  0.00  0.00     0.020 A 
HETATM    7  C   UNK     0      49.811  85.344  58.153  0.00  0.00     0.077 A 
HETATM    8  C   UNK     0      50.751  87.368  59.269  0.00  0.00     0.069 C 
HETATM    9  C   UNK     0      46.372  88.016  56.159  0.00  0.00     0.106 C 
ENDROOT
BRANCH   4  10
HETATM   10  C   UNK     0      46.149  85.590  55.643  0.00  0.00     0.197 A 
HETATM   11  N   UNK     0      45.039  85.039  56.208  0.00  0.00    -0.124 N 
HETATM   12  C   UNK     0      44.639  84.055  55.353  0.00  0.00     0.729 A 
HETATM   13  N   UNK     0      45.459  84.006  54.325  0.00  0.00     0.044 NA
HETATM   14  N   UNK     0      46.418  84.982  54.509  0.00  0.00    -0.113 NA
BRANCH  11  15
HETATM   15  C   UNK     0      44.427  85.399  57.412  0.00  0.00     0.059 A 
HETATM   16  C   UNK     0      44.829  84.787  58.591  0.00  0.00     0.030 A 
HETATM   17  C   UNK     0      44.221  85.150  59.793  0.00  0.00     0.002 A 
HETATM   18  C   UNK     0      43.220  86.121  59.805  0.00  0.00     0.000 A 
HETATM   19  C   UNK     0      42.826  86.729  58.613  0.00  0.00     0.002 A 
HETATM   20  C   UNK     0      43.433  86.366  57.410  0.00  0.00     0.030 A 
ENDBRANCH  11  15
BRANCH  12  21
HETATM   21  N   UNK     0      43.529  83.285  55.623  0.00  0.00    -0.210 N 
HETATM   22  C   UNK     0      43.664  82.019  56.356  0.00  0.00     0.167 C 
HETATM   23  C   UNK     0      42.396  81.764  57.163  0.00  0.00     0.188 C 
HETATM   24  O   UNK     0      41.253  81.784  56.306  0.00  0.00    -0.388 OA
HETATM   25  C   UNK     0      41.098  83.068  55.699  0.00  0.00     0.188 C 
HETATM   26  C   UNK     0      42.305  83.398  54.825  0.00  0.00     0.167 C 
ENDBRANCH  12  21
ENDBRANCH   4  10
BRANCH   2  27
HETATM   27  C   UNK     0      48.409  88.718  57.893  0.00  0.00     0.040 A 
HETATM   28  C   UNK     0      47.551  89.186  58.898  0.00  0.00     0.033 A 
HETATM   29  C   UNK     0      47.278  90.549  59.019  0.00  0.00     0.039 A 
HETATM   30  C   UNK     0      47.862  91.458  58.137  0.00  0.00     0.068 A 
HETATM   31  C   UNK     0      48.717  91.005  57.133  0.00  0.00     0.039 A 
HETATM   32  C   UNK     0      48.990  89.642  57.011  0.00  0.00     0.033 A 
BRANCH  30  33
HETATM   33  O   UNK     0      47.598  92.788  58.257  0.00  0.00    -0.356 OA
HETATM   34  C   UNK     0      46.752  93.188  59.334  0.00  0.00     0.210 C 
ENDBRANCH  30  33
ENDBRANCH   2  27
TORSDOF 5
ENDMDL
