MODEL 1
REMARK VINA RESULT:      -9.2      0.000      0.000
REMARK  6 active torsions:
REMARK  status: ('A' for Active; 'I' for Inactive)
REMARK    1  A    between atoms: S_1  and  C_16 
REMARK    2  A    between atoms: S_1  and  C_17 
REMARK       I    between atoms: N_6  and  C_15 
REMARK    3  A    between atoms: N_10  and  C_23 
REMARK       I    between atoms: N_10  and  C_26 
REMARK    4  A    between atoms: C_15  and  C_16 
REMARK    5  A    between atoms: C_18  and  C_19 
REMARK    6  A    between atoms: C_26  and  C_27 
ROOT
HETATM    1  C   UNK     0      69.763  73.511  63.874  0.00  0.00     0.012 A 
HETATM    2  C   UNK     0      69.959  72.243  64.419  0.00  0.00     0.017 A 
HETATM    3  C   UNK     0      70.735  74.498  64.032  0.00  0.00     0.017 A 
HETATM    4  C   UNK     0      72.104  72.946  65.280  0.00  0.00     0.035 A 
HETATM    5  C   UNK     0      71.131  71.961  65.122  0.00  0.00     0.030 A 
HETATM    6  C   UNK     0      71.907  74.215  64.734  0.00  0.00     0.030 A 
ENDROOT
BRANCH   1   7
HETATM    7  C   UNK     0      68.550  73.804  63.149  0.00  0.00     0.164 A 
HETATM    8  N   UNK     0      67.402  74.252  63.729  0.00  0.00    -0.312 N 
HETATM    9  C   UNK     0      66.553  74.389  62.705  0.00  0.00     0.191 A 
HETATM   10  C   UNK     0      67.189  74.508  65.136  0.00  0.00     0.160 C 
HETATM   11  N   UNK     0      67.077  74.069  61.573  0.00  0.00    -0.122 NA
HETATM   12  N   UNK     0      68.374  73.688  61.852  0.00  0.00    -0.128 NA
BRANCH   9  13
HETATM   13  S   UNK     0      64.893  74.956  62.935  0.00  0.00    -0.081 SA
BRANCH  13  14
HETATM   14  C   UNK     0      63.995  73.406  62.770  0.00  0.00     0.185 C 
BRANCH  14  15
HETATM   15  C   UNK     0      63.934  72.764  64.132  0.00  0.00     0.229 C 
HETATM   16  O   UNK     0      64.863  72.041  64.502  0.00  0.00    -0.273 OA
HETATM   17  N   UNK     0      62.806  73.042  64.901  0.00  0.00    -0.347 N 
HETATM   18  C   UNK     0      62.605  72.358  66.178  0.00  0.00     0.152 C 
HETATM   19  C   UNK     0      61.686  73.894  64.491  0.00  0.00     0.152 C 
HETATM   20  C   UNK     0      62.169  73.351  67.247  0.00  0.00     0.187 C 
HETATM   21  O   UNK     0      61.009  74.066  66.814  0.00  0.00    -0.388 OA
HETATM   22  C   UNK     0      61.284  74.822  65.631  0.00  0.00     0.187 C 
ENDBRANCH  14  15
ENDBRANCH  13  14
ENDBRANCH   9  13
ENDBRANCH   1   7
BRANCH   4  23
HETATM   23  N   UNK     0      73.276  72.663  65.981  0.00  0.00    -0.323 N 
HETATM   24  C   UNK     0      74.517  72.267  65.464  0.00  0.00     0.259 C 
HETATM   25  O   UNK     0      74.801  72.095  64.285  0.00  0.00    -0.267 OA
HETATM   26  H   UNK     0      73.200  72.804  66.985  0.00  0.00     0.169 HD
BRANCH  24  27
HETATM   27  C   UNK     0      75.575  72.010  66.476  0.00  0.00     0.070 A 
HETATM   28  C   UNK     0      75.669  70.757  67.044  0.00  0.00     0.132 A 
HETATM   29  F   UNK     0      74.829  69.767  66.707  0.00  0.00    -0.205 F 
HETATM   30  C   UNK     0      76.664  70.519  67.992  0.00  0.00     0.043 A 
HETATM   31  C   UNK     0      77.543  71.541  68.351  0.00  0.00     0.003 A 
HETATM   32  C   UNK     0      77.428  72.800  67.761  0.00  0.00     0.001 A 
HETATM   33  C   UNK     0      76.432  73.037  66.813  0.00  0.00     0.020 A 
ENDBRANCH  24  27
ENDBRANCH   4  23
TORSDOF 6
ENDMDL
MODEL 2
REMARK VINA RESULT:      -9.1      1.759      2.189
REMARK  6 active torsions:
REMARK  status: ('A' for Active; 'I' for Inactive)
REMARK    1  A    between atoms: S_1  and  C_16 
REMARK    2  A    between atoms: S_1  and  C_17 
REMARK       I    between atoms: N_6  and  C_15 
REMARK    3  A    between atoms: N_10  and  C_23 
REMARK       I    between atoms: N_10  and  C_26 
REMARK    4  A    between atoms: C_15  and  C_16 
REMARK    5  A    between atoms: C_18  and  C_19 
REMARK    6  A    between atoms: C_26  and  C_27 
ROOT
HETATM    1  C   UNK     0      68.943  73.247  63.030  0.00  0.00     0.012 A 
HETATM    2  C   UNK     0      69.450  74.210  63.901  0.00  0.00     0.017 A 
HETATM    3  C   UNK     0      69.698  72.116  62.723  0.00  0.00     0.017 A 
HETATM    4  C   UNK     0      71.470  72.910  64.162  0.00  0.00     0.035 A 
HETATM    5  C   UNK     0      70.715  74.041  64.468  0.00  0.00     0.030 A 
HETATM    6  C   UNK     0      70.962  71.946  63.290  0.00  0.00     0.030 A 
ENDROOT
BRANCH   1   7
HETATM    7  C   UNK     0      67.637  73.423  62.442  0.00  0.00     0.164 A 
HETATM    8  N   UNK     0      66.478  72.997  63.016  0.00  0.00    -0.312 N 
HETATM    9  C   UNK     0      65.532  73.363  62.145  0.00  0.00     0.191 A 
HETATM   10  C   UNK     0      66.342  72.311  64.282  0.00  0.00     0.160 C 
HETATM   11  N   UNK     0      66.008  73.962  61.109  0.00  0.00    -0.122 NA
HETATM   12  N   UNK     0      67.375  74.006  61.295  0.00  0.00    -0.128 NA
BRANCH   9  13
HETATM   13  S   UNK     0      63.817  73.034  62.432  0.00  0.00    -0.081 SA
BRANCH  13  14
HETATM   14  C   UNK     0      63.375  74.464  63.431  0.00  0.00     0.185 C 
BRANCH  14  15
HETATM   15  C   UNK     0      62.727  73.958  64.694  0.00  0.00     0.229 C 
HETATM   16  O   UNK     0      61.726  73.240  64.615  0.00  0.00    -0.273 OA
HETATM   17  N   UNK     0      63.320  74.343  65.895  0.00  0.00    -0.347 N 
HETATM   18  C   UNK     0      62.682  74.006  67.167  0.00  0.00     0.152 C 
HETATM   19  C   UNK     0      64.507  75.194  66.023  0.00  0.00     0.152 C 
HETATM   20  C   UNK     0      63.713  73.473  68.152  0.00  0.00     0.187 C 
HETATM   21  O   UNK     0      64.784  74.408  68.302  0.00  0.00    -0.388 OA
HETATM   22  C   UNK     0      65.462  74.614  67.058  0.00  0.00     0.187 C 
ENDBRANCH  14  15
ENDBRANCH  13  14
ENDBRANCH   9  13
ENDBRANCH   1   7
BRANCH   4  23
HETATM   23  N   UNK     0      72.733  72.740  64.730  0.00  0.00    -0.323 N 
HETATM   24  C   UNK     0      73.046  72.418  66.057  0.00  0.00     0.259 C 
HETATM   25  O   UNK     0      72.256  72.223  66.972  0.00  0.00    -0.267 OA
HETATM   26  H   UNK     0      73.499  72.835  64.068  0.00  0.00     0.169 HD
BRANCH  24  27
HETATM   27  C   UNK     0      74.498  72.334  66.366  0.00  0.00     0.070 A 
HETATM   28  C   UNK     0      75.010  71.154  66.863  0.00  0.00     0.132 A 
HETATM   29  F   UNK     0      74.231  70.083  67.074  0.00  0.00    -0.205 F 
HETATM   30  C   UNK     0      76.372  71.079  67.152  0.00  0.00     0.043 A 
HETATM   31  C   UNK     0      77.192  72.187  66.937  0.00  0.00     0.003 A 
HETATM   32  C   UNK     0      76.650  73.369  66.434  0.00  0.00     0.001 A 
HETATM   33  C   UNK     0      75.287  73.444  66.144  0.00  0.00     0.020 A 
ENDBRANCH  24  27
ENDBRANCH   4  23
TORSDOF 6
ENDMDL
MODEL 3
REMARK VINA RESULT:      -8.5      3.427     11.364
REMARK  6 active torsions:
REMARK  status: ('A' for Active; 'I' for Inactive)
REMARK    1  A    between atoms: S_1  and  C_16 
REMARK    2  A    between atoms: S_1  and  C_17 
REMARK       I    between atoms: N_6  and  C_15 
REMARK    3  A    between atoms: N_10  and  C_23 
REMARK       I    between atoms: N_10  and  C_26 
REMARK    4  A    between atoms: C_15  and  C_16 
REMARK    5  A    between atoms: C_18  and  C_19 
REMARK    6  A    between atoms: C_26  and  C_27 
ROOT
HETATM    1  C   UNK     0      68.908  72.988  63.992  0.00  0.00     0.012 A 
HETATM    2  C   UNK     0      68.204  73.597  62.955  0.00  0.00     0.017 A 
HETATM    3  C   UNK     0      68.238  72.572  65.142  0.00  0.00     0.017 A 
HETATM    4  C   UNK     0      66.155  73.373  64.216  0.00  0.00     0.035 A 
HETATM    5  C   UNK     0      66.826  73.789  63.067  0.00  0.00     0.030 A 
HETATM    6  C   UNK     0      66.860  72.764  65.254  0.00  0.00     0.030 A 
ENDROOT
BRANCH   1   7
HETATM    7  C   UNK     0      70.333  72.791  63.877  0.00  0.00     0.164 A 
HETATM    8  N   UNK     0      71.265  73.633  64.402  0.00  0.00    -0.312 N 
HETATM    9  C   UNK     0      72.433  73.076  64.065  0.00  0.00     0.191 A 
HETATM   10  C   UNK     0      71.011  74.846  65.148  0.00  0.00     0.160 C 
HETATM   11  N   UNK     0      72.293  71.987  63.392  0.00  0.00    -0.122 NA
HETATM   12  N   UNK     0      70.932  71.794  63.266  0.00  0.00    -0.128 NA
BRANCH   9  13
HETATM   13  S   UNK     0      73.982  73.799  64.521  0.00  0.00    -0.081 SA
BRANCH  13  14
HETATM   14  C   UNK     0      74.551  72.604  65.740  0.00  0.00     0.185 C 
BRANCH  14  15
HETATM   15  C   UNK     0      75.570  71.716  65.071  0.00  0.00     0.229 C 
HETATM   16  O   UNK     0      75.879  71.929  63.896  0.00  0.00    -0.273 OA
HETATM   17  N   UNK     0      76.110  70.694  65.849  0.00  0.00    -0.347 N 
HETATM   18  C   UNK     0      77.005  69.709  65.243  0.00  0.00     0.152 C 
HETATM   19  C   UNK     0      75.764  70.415  67.246  0.00  0.00     0.152 C 
HETATM   20  C   UNK     0      78.215  69.473  66.136  0.00  0.00     0.187 C 
HETATM   21  O   UNK     0      77.794  69.101  67.451  0.00  0.00    -0.388 OA
HETATM   22  C   UNK     0      77.026  70.145  68.057  0.00  0.00     0.187 C 
ENDBRANCH  14  15
ENDBRANCH  13  14
ENDBRANCH   9  13
ENDBRANCH   1   7
BRANCH   4  23
HETATM   23  N   UNK     0      64.777  73.564  64.327  0.00  0.00    -0.323 N 
HETATM   24  C   UNK     0      64.092  74.394  65.224  0.00  0.00     0.259 C 
HETATM   25  O   UNK     0      64.585  75.112  66.085  0.00  0.00    -0.267 OA
HETATM   26  H   UNK     0      64.233  73.052  63.638  0.00  0.00     0.169 HD
BRANCH  24  27
HETATM   27  C   UNK     0      62.609  74.362  65.115  0.00  0.00     0.070 A 
HETATM   28  C   UNK     0      61.930  73.245  65.553  0.00  0.00     0.132 A 
HETATM   29  F   UNK     0      62.572  72.189  66.073  0.00  0.00    -0.205 F 
HETATM   30  C   UNK     0      60.539  73.219  65.450  0.00  0.00     0.043 A 
HETATM   31  C   UNK     0      59.860  74.311  64.910  0.00  0.00     0.003 A 
HETATM   32  C   UNK     0      60.570  75.428  64.474  0.00  0.00     0.001 A 
HETATM   33  C   UNK     0      61.962  75.455  64.578  0.00  0.00     0.020 A 
ENDBRANCH  24  27
ENDBRANCH   4  23
TORSDOF 6
ENDMDL
MODEL 4
REMARK VINA RESULT:      -8.5     23.781     25.299
REMARK  6 active torsions:
REMARK  status: ('A' for Active; 'I' for Inactive)
REMARK    1  A    between atoms: S_1  and  C_16 
REMARK    2  A    between atoms: S_1  and  C_17 
REMARK       I    between atoms: N_6  and  C_15 
REMARK    3  A    between atoms: N_10  and  C_23 
REMARK       I    between atoms: N_10  and  C_26 
REMARK    4  A    between atoms: C_15  and  C_16 
REMARK    5  A    between atoms: C_18  and  C_19 
REMARK    6  A    between atoms: C_26  and  C_27 
ROOT
HETATM    1  C   UNK     0      54.591  53.775  59.323  0.00  0.00     0.012 A 
HETATM    2  C   UNK     0      54.839  52.550  59.939  0.00  0.00     0.017 A 
HETATM    3  C   UNK     0      54.455  54.930  60.092  0.00  0.00     0.017 A 
HETATM    4  C   UNK     0      54.820  53.633  62.099  0.00  0.00     0.035 A 
HETATM    5  C   UNK     0      54.954  52.479  61.328  0.00  0.00     0.030 A 
HETATM    6  C   UNK     0      54.570  54.860  61.482  0.00  0.00     0.030 A 
ENDROOT
BRANCH   1   7
HETATM    7  C   UNK     0      54.470  53.848  57.887  0.00  0.00     0.164 A 
HETATM    8  N   UNK     0      55.513  53.702  57.024  0.00  0.00    -0.312 N 
HETATM    9  C   UNK     0      54.957  53.840  55.816  0.00  0.00     0.191 A 
HETATM   10  C   UNK     0      56.894  53.454  57.373  0.00  0.00     0.160 C 
HETATM   11  N   UNK     0      53.688  54.054  55.870  0.00  0.00    -0.122 NA
HETATM   12  N   UNK     0      53.363  54.061  57.211  0.00  0.00    -0.128 NA
BRANCH   9  13
HETATM   13  S   UNK     0      55.909  53.730  54.329  0.00  0.00    -0.081 SA
BRANCH  13  14
HETATM   14  C   UNK     0      56.730  55.330  54.350  0.00  0.00     0.185 C 
BRANCH  14  15
HETATM   15  C   UNK     0      57.750  55.337  53.240  0.00  0.00     0.229 C 
HETATM   16  O   UNK     0      58.870  54.861  53.445  0.00  0.00    -0.273 OA
HETATM   17  N   UNK     0      57.346  55.890  52.027  0.00  0.00    -0.347 N 
HETATM   18  C   UNK     0      58.311  56.055  50.941  0.00  0.00     0.152 C 
HETATM   19  C   UNK     0      56.025  56.463  51.752  0.00  0.00     0.152 C 
HETATM   20  C   UNK     0      57.707  55.594  49.621  0.00  0.00     0.187 C 
HETATM   21  O   UNK     0      56.476  56.277  49.375  0.00  0.00    -0.388 OA
HETATM   22  C   UNK     0      55.516  55.988  50.396  0.00  0.00     0.187 C 
ENDBRANCH  14  15
ENDBRANCH  13  14
ENDBRANCH   9  13
ENDBRANCH   1   7
BRANCH   4  23
HETATM   23  N   UNK     0      54.936  53.562  63.487  0.00  0.00    -0.323 N 
HETATM   24  C   UNK     0      54.967  54.620  64.405  0.00  0.00     0.259 C 
HETATM   25  O   UNK     0      54.898  55.817  64.151  0.00  0.00    -0.267 OA
HETATM   26  H   UNK     0      54.963  52.613  63.851  0.00  0.00     0.169 HD
BRANCH  24  27
HETATM   27  C   UNK     0      55.128  54.224  65.829  0.00  0.00     0.070 A 
HETATM   28  C   UNK     0      54.003  54.005  66.595  0.00  0.00     0.132 A 
HETATM   29  F   UNK     0      52.769  54.143  66.087  0.00  0.00    -0.205 F 
HETATM   30  C   UNK     0      54.158  53.633  67.930  0.00  0.00     0.043 A 
HETATM   31  C   UNK     0      55.436  53.488  68.469  0.00  0.00     0.003 A 
HETATM   32  C   UNK     0      56.559  53.714  67.673  0.00  0.00     0.001 A 
HETATM   33  C   UNK     0      56.404  54.087  66.337  0.00  0.00     0.020 A 
ENDBRANCH  24  27
ENDBRANCH   4  23
TORSDOF 6
ENDMDL
MODEL 5
REMARK VINA RESULT:      -8.4     24.110     25.040
REMARK  6 active torsions:
REMARK  status: ('A' for Active; 'I' for Inactive)
REMARK    1  A    between atoms: S_1  and  C_16 
REMARK    2  A    between atoms: S_1  and  C_17 
REMARK       I    between atoms: N_6  and  C_15 
REMARK    3  A    between atoms: N_10  and  C_23 
REMARK       I    between atoms: N_10  and  C_26 
REMARK    4  A    between atoms: C_15  and  C_16 
REMARK    5  A    between atoms: C_18  and  C_19 
REMARK    6  A    between atoms: C_26  and  C_27 
ROOT
HETATM    1  C   UNK     0      58.719  56.342  51.126  0.00  0.00     0.012 A 
HETATM    2  C   UNK     0      58.602  57.695  50.810  0.00  0.00     0.017 A 
HETATM    3  C   UNK     0      59.714  55.569  50.529  0.00  0.00     0.017 A 
HETATM    4  C   UNK     0      60.477  57.504  49.298  0.00  0.00     0.035 A 
HETATM    5  C   UNK     0      59.482  58.276  49.896  0.00  0.00     0.030 A 
HETATM    6  C   UNK     0      60.594  56.150  49.615  0.00  0.00     0.030 A 
ENDROOT
BRANCH   1   7
HETATM    7  C   UNK     0      57.808  55.741  52.069  0.00  0.00     0.164 A 
HETATM    8  N   UNK     0      56.601  55.209  51.732  0.00  0.00    -0.312 N 
HETATM    9  C   UNK     0      56.104  54.771  52.894  0.00  0.00     0.191 A 
HETATM   10  C   UNK     0      56.023  55.149  50.408  0.00  0.00     0.160 C 
HETATM   11  N   UNK     0      56.891  54.988  53.890  0.00  0.00    -0.122 NA
HETATM   12  N   UNK     0      58.000  55.617  53.363  0.00  0.00    -0.128 NA
BRANCH   9  13
HETATM   13  S   UNK     0      54.524  53.982  52.998  0.00  0.00    -0.081 SA
BRANCH  13  14
HETATM   14  C   UNK     0      54.741  53.018  54.502  0.00  0.00     0.185 C 
BRANCH  14  15
HETATM   15  C   UNK     0      54.147  53.806  55.642  0.00  0.00     0.229 C 
HETATM   16  O   UNK     0      52.977  54.188  55.568  0.00  0.00    -0.273 OA
HETATM   17  N   UNK     0      54.982  54.051  56.730  0.00  0.00    -0.347 N 
HETATM   18  C   UNK     0      54.530  54.917  57.818  0.00  0.00     0.152 C 
HETATM   19  C   UNK     0      56.376  53.612  56.848  0.00  0.00     0.152 C 
HETATM   20  C   UNK     0      54.861  54.290  59.166  0.00  0.00     0.187 C 
HETATM   21  O   UNK     0      56.257  53.990  59.242  0.00  0.00    -0.388 OA
HETATM   22  C   UNK     0      56.633  53.043  58.238  0.00  0.00     0.187 C 
ENDBRANCH  14  15
ENDBRANCH  13  14
ENDBRANCH   9  13
ENDBRANCH   1   7
BRANCH   4  23
HETATM   23  N   UNK     0      61.358  58.085  48.386  0.00  0.00    -0.323 N 
HETATM   24  C   UNK     0      61.357  57.964  46.990  0.00  0.00     0.259 C 
HETATM   25  O   UNK     0      60.571  57.317  46.308  0.00  0.00    -0.267 OA
HETATM   26  H   UNK     0      62.052  58.693  48.812  0.00  0.00     0.169 HD
BRANCH  24  27
HETATM   27  C   UNK     0      62.449  58.687  46.287  0.00  0.00     0.070 A 
HETATM   28  C   UNK     0      62.161  59.867  45.636  0.00  0.00     0.132 A 
HETATM   29  F   UNK     0      60.921  60.377  45.620  0.00  0.00    -0.205 F 
HETATM   30  C   UNK     0      63.189  60.543  44.978  0.00  0.00     0.043 A 
HETATM   31  C   UNK     0      64.483  60.021  44.987  0.00  0.00     0.003 A 
HETATM   32  C   UNK     0      64.749  58.826  45.653  0.00  0.00     0.001 A 
HETATM   33  C   UNK     0      63.720  58.150  46.312  0.00  0.00     0.020 A 
ENDBRANCH  24  27
ENDBRANCH   4  23
TORSDOF 6
ENDMDL
MODEL 6
REMARK VINA RESULT:      -8.1     25.165     27.760
REMARK  6 active torsions:
REMARK  status: ('A' for Active; 'I' for Inactive)
REMARK    1  A    between atoms: S_1  and  C_16 
REMARK    2  A    between atoms: S_1  and  C_17 
REMARK       I    between atoms: N_6  and  C_15 
REMARK    3  A    between atoms: N_10  and  C_23 
REMARK       I    between atoms: N_10  and  C_26 
REMARK    4  A    between atoms: C_15  and  C_16 
REMARK    5  A    between atoms: C_18  and  C_19 
REMARK    6  A    between atoms: C_26  and  C_27 
ROOT
HETATM    1  C   UNK     0      52.660  58.259  77.969  0.00  0.00     0.012 A 
HETATM    2  C   UNK     0      52.662  57.275  76.980  0.00  0.00     0.017 A 
HETATM    3  C   UNK     0      51.886  59.407  77.810  0.00  0.00     0.017 A 
HETATM    4  C   UNK     0      51.111  58.588  75.673  0.00  0.00     0.035 A 
HETATM    5  C   UNK     0      51.886  57.440  75.832  0.00  0.00     0.030 A 
HETATM    6  C   UNK     0      51.110  59.572  76.662  0.00  0.00     0.030 A 
ENDROOT
BRANCH   1   7
HETATM    7  C   UNK     0      53.464  58.089  79.155  0.00  0.00     0.164 A 
HETATM    8  N   UNK     0      52.961  57.761  80.377  0.00  0.00    -0.312 N 
HETATM    9  C   UNK     0      54.038  57.710  81.168  0.00  0.00     0.191 A 
HETATM   10  C   UNK     0      51.572  57.528  80.706  0.00  0.00     0.160 C 
HETATM   11  N   UNK     0      55.133  57.974  80.543  0.00  0.00    -0.122 NA
HETATM   12  N   UNK     0      54.768  58.222  79.235  0.00  0.00    -0.128 NA
BRANCH   9  13
HETATM   13  S   UNK     0      53.919  57.314  82.888  0.00  0.00    -0.081 SA
BRANCH  13  14
HETATM   14  C   UNK     0      54.825  55.760  82.927  0.00  0.00     0.185 C 
BRANCH  14  15
HETATM   15  C   UNK     0      56.118  56.001  83.664  0.00  0.00     0.229 C 
HETATM   16  O   UNK     0      56.085  56.455  84.811  0.00  0.00    -0.273 OA
HETATM   17  N   UNK     0      57.291  55.681  82.984  0.00  0.00    -0.347 N 
HETATM   18  C   UNK     0      58.590  56.004  83.573  0.00  0.00     0.152 C 
HETATM   19  C   UNK     0      57.365  55.141  81.623  0.00  0.00     0.152 C 
HETATM   20  C   UNK     0      59.543  54.825  83.434  0.00  0.00     0.187 C 
HETATM   21  O   UNK     0      59.642  54.428  82.064  0.00  0.00    -0.388 OA
HETATM   22  C   UNK     0      58.372  53.999  81.562  0.00  0.00     0.187 C 
ENDBRANCH  14  15
ENDBRANCH  13  14
ENDBRANCH   9  13
ENDBRANCH   1   7
BRANCH   4  23
HETATM   23  N   UNK     0      50.335  58.752  74.525  0.00  0.00    -0.323 N 
HETATM   24  C   UNK     0      50.762  59.110  73.240  0.00  0.00     0.259 C 
HETATM   25  O   UNK     0      51.911  59.347  72.886  0.00  0.00    -0.267 OA
HETATM   26  H   UNK     0      49.349  58.546  74.661  0.00  0.00     0.169 HD
BRANCH  24  27
HETATM   27  C   UNK     0      49.685  59.233  72.222  0.00  0.00     0.070 A 
HETATM   28  C   UNK     0      49.309  60.488  71.794  0.00  0.00     0.132 A 
HETATM   29  F   UNK     0      49.889  61.598  72.272  0.00  0.00    -0.205 F 
HETATM   30  C   UNK     0      48.298  60.599  70.839  0.00  0.00     0.043 A 
HETATM   31  C   UNK     0      47.687  59.452  70.334  0.00  0.00     0.003 A 
HETATM   32  C   UNK     0      48.085  58.194  70.784  0.00  0.00     0.001 A 
HETATM   33  C   UNK     0      49.096  58.082  71.740  0.00  0.00     0.020 A 
ENDBRANCH  24  27
ENDBRANCH   4  23
TORSDOF 6
ENDMDL
MODEL 7
REMARK VINA RESULT:      -8.1     24.548     26.067
REMARK  6 active torsions:
REMARK  status: ('A' for Active; 'I' for Inactive)
REMARK    1  A    between atoms: S_1  and  C_16 
REMARK    2  A    between atoms: S_1  and  C_17 
REMARK       I    between atoms: N_6  and  C_15 
REMARK    3  A    between atoms: N_10  and  C_23 
REMARK       I    between atoms: N_10  and  C_26 
REMARK    4  A    between atoms: C_15  and  C_16 
REMARK    5  A    between atoms: C_18  and  C_19 
REMARK    6  A    between atoms: C_26  and  C_27 
ROOT
HETATM    1  C   UNK     0      56.574  55.185  53.169  0.00  0.00     0.012 A 
HETATM    2  C   UNK     0      57.151  55.844  54.254  0.00  0.00     0.017 A 
HETATM    3  C   UNK     0      55.780  54.059  53.378  0.00  0.00     0.017 A 
HETATM    4  C   UNK     0      56.139  54.249  55.760  0.00  0.00     0.035 A 
HETATM    5  C   UNK     0      56.933  55.375  55.550  0.00  0.00     0.030 A 
HETATM    6  C   UNK     0      55.561  53.590  54.675  0.00  0.00     0.030 A 
ENDROOT
BRANCH   1   7
HETATM    7  C   UNK     0      56.801  55.668  51.829  0.00  0.00     0.164 A 
HETATM    8  N   UNK     0      57.828  55.260  51.033  0.00  0.00    -0.312 N 
HETATM    9  C   UNK     0      57.655  55.949  49.901  0.00  0.00     0.191 A 
HETATM   10  C   UNK     0      58.852  54.297  51.372  0.00  0.00     0.160 C 
HETATM   11  N   UNK     0      56.630  56.728  49.939  0.00  0.00    -0.122 NA
HETATM   12  N   UNK     0      56.069  56.551  51.187  0.00  0.00    -0.128 NA
BRANCH   9  13
HETATM   13  S   UNK     0      58.749  55.774  48.521  0.00  0.00    -0.081 SA
BRANCH  13  14
HETATM   14  C   UNK     0      59.907  57.110  48.854  0.00  0.00     0.185 C 
BRANCH  14  15
HETATM   15  C   UNK     0      59.715  58.160  47.790  0.00  0.00     0.229 C 
HETATM   16  O   UNK     0      58.729  58.900  47.842  0.00  0.00    -0.273 OA
HETATM   17  N   UNK     0      60.691  58.227  46.798  0.00  0.00    -0.347 N 
HETATM   18  C   UNK     0      60.516  59.126  45.658  0.00  0.00     0.152 C 
HETATM   19  C   UNK     0      61.872  57.363  46.708  0.00  0.00     0.152 C 
HETATM   20  C   UNK     0      61.806  59.883  45.377  0.00  0.00     0.187 C 
HETATM   21  O   UNK     0      62.888  58.966  45.195  0.00  0.00    -0.388 OA
HETATM   22  C   UNK     0      63.108  58.192  46.379  0.00  0.00     0.187 C 
ENDBRANCH  14  15
ENDBRANCH  13  14
ENDBRANCH   9  13
ENDBRANCH   1   7
BRANCH   4  23
HETATM   23  N   UNK     0      55.921  53.782  57.056  0.00  0.00    -0.323 N 
HETATM   24  C   UNK     0      54.770  53.927  57.843  0.00  0.00     0.259 C 
HETATM   25  O   UNK     0      53.733  54.499  57.530  0.00  0.00    -0.267 OA
HETATM   26  H   UNK     0      56.695  53.245  57.437  0.00  0.00     0.169 HD
BRANCH  24  27
HETATM   27  C   UNK     0      54.852  53.338  59.206  0.00  0.00     0.070 A 
HETATM   28  C   UNK     0      55.102  51.989  59.338  0.00  0.00     0.132 A 
HETATM   29  F   UNK     0      55.271  51.196  58.270  0.00  0.00    -0.205 F 
HETATM   30  C   UNK     0      55.178  51.440  60.618  0.00  0.00     0.043 A 
HETATM   31  C   UNK     0      55.003  52.255  61.737  0.00  0.00     0.003 A 
HETATM   32  C   UNK     0      54.752  53.616  61.576  0.00  0.00     0.001 A 
HETATM   33  C   UNK     0      54.675  54.166  60.295  0.00  0.00     0.020 A 
ENDBRANCH  24  27
ENDBRANCH   4  23
TORSDOF 6
ENDMDL
MODEL 8
REMARK VINA RESULT:      -8.1     24.477     26.123
REMARK  6 active torsions:
REMARK  status: ('A' for Active; 'I' for Inactive)
REMARK    1  A    between atoms: S_1  and  C_16 
REMARK    2  A    between atoms: S_1  and  C_17 
REMARK       I    between atoms: N_6  and  C_15 
REMARK    3  A    between atoms: N_10  and  C_23 
REMARK       I    between atoms: N_10  and  C_26 
REMARK    4  A    between atoms: C_15  and  C_16 
REMARK    5  A    between atoms: C_18  and  C_19 
REMARK    6  A    between atoms: C_26  and  C_27 
ROOT
HETATM    1  C   UNK     0      56.522  55.167  52.905  0.00  0.00     0.012 A 
HETATM    2  C   UNK     0      55.649  54.122  53.205  0.00  0.00     0.017 A 
HETATM    3  C   UNK     0      57.167  55.855  53.930  0.00  0.00     0.017 A 
HETATM    4  C   UNK     0      56.069  54.451  55.562  0.00  0.00     0.035 A 
HETATM    5  C   UNK     0      55.424  53.764  54.535  0.00  0.00     0.030 A 
HETATM    6  C   UNK     0      56.942  55.497  55.260  0.00  0.00     0.030 A 
ENDROOT
BRANCH   1   7
HETATM    7  C   UNK     0      56.754  55.539  51.530  0.00  0.00     0.164 A 
HETATM    8  N   UNK     0      57.454  54.781  50.641  0.00  0.00    -0.312 N 
HETATM    9  C   UNK     0      57.420  55.492  49.510  0.00  0.00     0.191 A 
HETATM   10  C   UNK     0      58.077  53.501  50.900  0.00  0.00     0.160 C 
HETATM   11  N   UNK     0      56.772  56.598  49.633  0.00  0.00    -0.122 NA
HETATM   12  N   UNK     0      56.335  56.636  50.941  0.00  0.00    -0.128 NA
BRANCH   9  13
HETATM   13  S   UNK     0      58.200  54.929  48.025  0.00  0.00    -0.081 SA
BRANCH  13  14
HETATM   14  C   UNK     0      59.918  55.315  48.395  0.00  0.00     0.185 C 
BRANCH  14  15
HETATM   15  C   UNK     0      60.515  55.967  47.174  0.00  0.00     0.229 C 
HETATM   16  O   UNK     0      60.855  55.265  46.218  0.00  0.00    -0.273 OA
HETATM   17  N   UNK     0      60.640  57.354  47.208  0.00  0.00    -0.347 N 
HETATM   18  C   UNK     0      61.327  58.054  46.122  0.00  0.00     0.152 C 
HETATM   19  C   UNK     0      60.247  58.217  48.327  0.00  0.00     0.152 C 
HETATM   20  C   UNK     0      60.533  59.281  45.698  0.00  0.00     0.187 C 
HETATM   21  O   UNK     0      60.283  60.123  46.826  0.00  0.00    -0.388 OA
HETATM   22  C   UNK     0      59.501  59.441  47.811  0.00  0.00     0.187 C 
ENDBRANCH  14  15
ENDBRANCH  13  14
ENDBRANCH   9  13
ENDBRANCH   1   7
BRANCH   4  23
HETATM   23  N   UNK     0      55.844  54.092  56.891  0.00  0.00    -0.323 N 
HETATM   24  C   UNK     0      54.623  54.049  57.578  0.00  0.00     0.259 C 
HETATM   25  O   UNK     0      53.517  54.323  57.128  0.00  0.00    -0.267 OA
HETATM   26  H   UNK     0      56.681  53.797  57.386  0.00  0.00     0.169 HD
BRANCH  24  27
HETATM   27  C   UNK     0      54.710  53.651  59.007  0.00  0.00     0.070 A 
HETATM   28  C   UNK     0      54.500  54.603  59.982  0.00  0.00     0.132 A 
HETATM   29  F   UNK     0      54.220  55.877  59.672  0.00  0.00    -0.205 F 
HETATM   30  C   UNK     0      54.582  54.226  61.322  0.00  0.00     0.043 A 
HETATM   31  C   UNK     0      54.873  52.903  61.657  0.00  0.00     0.003 A 
HETATM   32  C   UNK     0      55.081  51.959  60.652  0.00  0.00     0.001 A 
HETATM   33  C   UNK     0      54.999  52.337  59.311  0.00  0.00     0.020 A 
ENDBRANCH  24  27
ENDBRANCH   4  23
TORSDOF 6
ENDMDL
MODEL 9
REMARK VINA RESULT:      -7.9     24.256     25.749
REMARK  6 active torsions:
REMARK  status: ('A' for Active; 'I' for Inactive)
REMARK    1  A    between atoms: S_1  and  C_16 
REMARK    2  A    between atoms: S_1  and  C_17 
REMARK       I    between atoms: N_6  and  C_15 
REMARK    3  A    between atoms: N_10  and  C_23 
REMARK       I    between atoms: N_10  and  C_26 
REMARK    4  A    between atoms: C_15  and  C_16 
REMARK    5  A    between atoms: C_18  and  C_19 
REMARK    6  A    between atoms: C_26  and  C_27 
ROOT
HETATM    1  C   UNK     0      58.748  55.594  52.883  0.00  0.00     0.012 A 
HETATM    2  C   UNK     0      57.597  56.255  53.308  0.00  0.00     0.017 A 
HETATM    3  C   UNK     0      59.307  54.588  53.669  0.00  0.00     0.017 A 
HETATM    4  C   UNK     0      57.560  54.902  55.310  0.00  0.00     0.035 A 
HETATM    5  C   UNK     0      57.003  55.908  54.522  0.00  0.00     0.030 A 
HETATM    6  C   UNK     0      58.713  54.241  54.884  0.00  0.00     0.030 A 
ENDROOT
BRANCH   1   7
HETATM    7  C   UNK     0      59.364  55.954  51.629  0.00  0.00     0.164 A 
HETATM    8  N   UNK     0      59.023  55.413  50.427  0.00  0.00    -0.312 N 
HETATM    9  C   UNK     0      59.830  56.025  49.554  0.00  0.00     0.191 A 
HETATM   10  C   UNK     0      58.011  54.407  50.189  0.00  0.00     0.160 C 
HETATM   11  N   UNK     0      60.619  56.876  50.112  0.00  0.00    -0.122 NA
HETATM   12  N   UNK     0      60.323  56.836  51.460  0.00  0.00    -0.128 NA
BRANCH   9  13
HETATM   13  S   UNK     0      59.779  55.667  47.822  0.00  0.00    -0.081 SA
BRANCH  13  14
HETATM   14  C   UNK     0      60.416  57.211  47.153  0.00  0.00     0.185 C 
BRANCH  14  15
HETATM   15  C   UNK     0      61.882  57.015  46.862  0.00  0.00     0.229 C 
HETATM   16  O   UNK     0      62.410  55.931  47.121  0.00  0.00    -0.273 OA
HETATM   17  N   UNK     0      62.555  58.097  46.299  0.00  0.00    -0.347 N 
HETATM   18  C   UNK     0      64.004  58.038  46.106  0.00  0.00     0.152 C 
HETATM   19  C   UNK     0      61.957  59.397  45.979  0.00  0.00     0.152 C 
HETATM   20  C   UNK     0      64.375  58.558  44.724  0.00  0.00     0.187 C 
HETATM   21  O   UNK     0      63.846  59.872  44.531  0.00  0.00    -0.388 OA
HETATM   22  C   UNK     0      62.416  59.864  44.604  0.00  0.00     0.187 C 
ENDBRANCH  14  15
ENDBRANCH  13  14
ENDBRANCH   9  13
ENDBRANCH   1   7
BRANCH   4  23
HETATM   23  N   UNK     0      56.966  54.555  56.522  0.00  0.00    -0.323 N 
HETATM   24  C   UNK     0      55.768  53.857  56.727  0.00  0.00     0.259 C 
HETATM   25  O   UNK     0      55.015  53.420  55.865  0.00  0.00    -0.267 OA
HETATM   26  H   UNK     0      57.507  54.823  57.340  0.00  0.00     0.169 HD
BRANCH  24  27
HETATM   27  C   UNK     0      55.379  53.664  58.149  0.00  0.00     0.070 A 
HETATM   28  C   UNK     0      55.756  52.505  58.795  0.00  0.00     0.132 A 
HETATM   29  F   UNK     0      56.463  51.551  58.172  0.00  0.00    -0.205 F 
HETATM   30  C   UNK     0      55.389  52.327  60.128  0.00  0.00     0.043 A 
HETATM   31  C   UNK     0      54.653  53.312  60.786  0.00  0.00     0.003 A 
HETATM   32  C   UNK     0      54.284  54.475  60.111  0.00  0.00     0.001 A 
HETATM   33  C   UNK     0      54.651  54.653  58.776  0.00  0.00     0.020 A 
ENDBRANCH  24  27
ENDBRANCH   4  23
TORSDOF 6
ENDMDL
