MODEL 1
REMARK VINA RESULT:      -7.7      0.000      0.000
REMARK  8 active torsions:
REMARK  status: ('A' for Active; 'I' for Inactive)
REMARK    1  A    between atoms: O_2  and  C_19 
REMARK    2  A    between atoms: O_2  and  C_24 
REMARK    3  A    between atoms: O_4  and  C_17 
REMARK    4  A    between atoms: N_6  and  C_8 
REMARK    5  A    between atoms: N_6  and  C_11 
REMARK       I    between atoms: N_6  and  C_15 
REMARK    6  A    between atoms: C_8  and  C_9 
REMARK    7  A    between atoms: C_11  and  C_17 
REMARK    8  A    between atoms: C_15  and  C_20 
ROOT
HETATM    1  O   UNK     0      69.192  71.783  62.851  0.00  0.00    -0.268 OA
HETATM    2  N   UNK     0      67.231  72.193  63.968  0.00  0.00    -0.322 N 
HETATM    3  C   UNK     0      69.079  73.801  64.101  0.00  0.00     0.029 A 
HETATM    4  C   UNK     0      66.975  74.210  65.278  0.00  0.00    -0.006 A 
HETATM    5  C   UNK     0      68.334  74.584  64.897  0.00  0.00     0.028 A 
HETATM    6  C   UNK     0      66.446  73.007  64.800  0.00  0.00     0.045 A 
HETATM    7  C   UNK     0      68.519  72.509  63.583  0.00  0.00     0.253 A 
HETATM    8  C   UNK     0      66.195  75.021  66.108  0.00  0.00     0.050 A 
HETATM    9  C   UNK     0      65.151  72.613  65.140  0.00  0.00     0.033 A 
HETATM   10  C   UNK     0      64.899  74.629  66.450  0.00  0.00     0.069 A 
HETATM   11  C   UNK     0      64.379  73.427  65.968  0.00  0.00     0.039 A 
HETATM   12  H   UNK     0      66.824  71.324  63.632  0.00  0.00     0.169 HD
ENDROOT
BRANCH   3  13
HETATM   13  C   UNK     0      70.475  74.156  63.692  0.00  0.00     0.170 C 
BRANCH  13  14
HETATM   14  N   UNK     0      71.210  74.578  64.843  0.00  0.00    -0.342 N 
HETATM   15  C   UNK     0      71.733  75.887  64.912  0.00  0.00     0.254 C 
HETATM   16  O   UNK     0      71.607  76.736  64.029  0.00  0.00    -0.267 OA
BRANCH  14  17
HETATM   17  C   UNK     0      71.381  73.585  65.917  0.00  0.00     0.152 C 
BRANCH  17  18
HETATM   18  C   UNK     0      72.157  72.373  65.436  0.00  0.00     0.184 C 
BRANCH  18  19
HETATM   19  O   UNK     0      71.264  71.280  65.261  0.00  0.00    -0.399 OA
HETATM   20  H   UNK     0      70.824  71.123  66.114  0.00  0.00     0.209 HD
ENDBRANCH  18  19
ENDBRANCH  17  18
ENDBRANCH  14  17
BRANCH  15  21
HETATM   21  C   UNK     0      72.470  76.304  66.115  0.00  0.00     0.032 A 
HETATM   22  C   UNK     0      71.787  76.929  67.147  0.00  0.00     0.018 A 
HETATM   23  C   UNK     0      72.485  77.325  68.289  0.00  0.00     0.020 A 
HETATM   24  C   UNK     0      73.857  77.090  68.384  0.00  0.00     0.011 A 
HETATM   25 Br   UNK     0      74.802  77.628  69.929  0.00  0.00    -0.051 Br
HETATM   26  C   UNK     0      74.531  76.461  67.337  0.00  0.00     0.020 A 
HETATM   27  C   UNK     0      73.833  76.066  66.196  0.00  0.00     0.018 A 
ENDBRANCH  15  21
ENDBRANCH  13  14
ENDBRANCH   3  13
BRANCH  10  28
HETATM   28  O   UNK     0      64.141  75.421  67.257  0.00  0.00    -0.351 OA
BRANCH  28  29
HETATM   29  C   UNK     0      62.794  75.660  66.852  0.00  0.00     0.171 C 
HETATM   30  C   UNK     0      62.771  76.807  65.866  0.00  0.00     0.034 C 
ENDBRANCH  28  29
ENDBRANCH  10  28
TORSDOF 8
ENDMDL
MODEL 2
REMARK VINA RESULT:      -7.3      1.517      1.978
REMARK  8 active torsions:
REMARK  status: ('A' for Active; 'I' for Inactive)
REMARK    1  A    between atoms: O_2  and  C_19 
REMARK    2  A    between atoms: O_2  and  C_24 
REMARK    3  A    between atoms: O_4  and  C_17 
REMARK    4  A    between atoms: N_6  and  C_8 
REMARK    5  A    between atoms: N_6  and  C_11 
REMARK       I    between atoms: N_6  and  C_15 
REMARK    6  A    between atoms: C_8  and  C_9 
REMARK    7  A    between atoms: C_11  and  C_17 
REMARK    8  A    between atoms: C_15  and  C_20 
ROOT
HETATM    1  O   UNK     0      69.913  73.972  61.521  0.00  0.00    -0.268 OA
HETATM    2  N   UNK     0      67.753  73.894  62.288  0.00  0.00    -0.322 N 
HETATM    3  C   UNK     0      69.614  73.393  63.806  0.00  0.00     0.029 A 
HETATM    4  C   UNK     0      67.301  73.320  64.594  0.00  0.00    -0.006 A 
HETATM    5  C   UNK     0      68.740  73.183  64.803  0.00  0.00     0.028 A 
HETATM    6  C   UNK     0      66.833  73.677  63.326  0.00  0.00     0.045 A 
HETATM    7  C   UNK     0      69.121  73.776  62.442  0.00  0.00     0.253 A 
HETATM    8  C   UNK     0      66.385  73.102  65.628  0.00  0.00     0.050 A 
HETATM    9  C   UNK     0      65.465  73.818  63.085  0.00  0.00     0.033 A 
HETATM   10  C   UNK     0      65.017  73.243  65.390  0.00  0.00     0.069 A 
HETATM   11  C   UNK     0      64.557  73.599  64.121  0.00  0.00     0.039 A 
HETATM   12  H   UNK     0      67.389  74.153  61.376  0.00  0.00     0.169 HD
ENDROOT
BRANCH   3  13
HETATM   13  C   UNK     0      71.095  73.261  63.987  0.00  0.00     0.170 C 
BRANCH  13  14
HETATM   14  N   UNK     0      71.491  73.971  65.164  0.00  0.00    -0.342 N 
HETATM   15  C   UNK     0      71.517  75.381  65.168  0.00  0.00     0.254 C 
HETATM   16  O   UNK     0      71.216  76.088  64.206  0.00  0.00    -0.267 OA
BRANCH  14  17
HETATM   17  C   UNK     0      71.859  73.154  66.332  0.00  0.00     0.152 C 
BRANCH  17  18
HETATM   18  C   UNK     0      73.258  72.581  66.193  0.00  0.00     0.184 C 
BRANCH  18  19
HETATM   19  O   UNK     0      73.213  71.174  66.394  0.00  0.00    -0.399 OA
HETATM   20  H   UNK     0      73.189  70.755  65.517  0.00  0.00     0.209 HD
ENDBRANCH  18  19
ENDBRANCH  17  18
ENDBRANCH  14  17
BRANCH  15  21
HETATM   21  C   UNK     0      71.910  76.089  66.397  0.00  0.00     0.032 A 
HETATM   22  C   UNK     0      73.241  76.425  66.592  0.00  0.00     0.018 A 
HETATM   23  C   UNK     0      73.614  77.096  67.757  0.00  0.00     0.020 A 
HETATM   24  C   UNK     0      72.650  77.425  68.711  0.00  0.00     0.011 A 
HETATM   25 Br   UNK     0      73.156  78.333  70.289  0.00  0.00    -0.051 Br
HETATM   26  C   UNK     0      71.315  77.081  68.501  0.00  0.00     0.020 A 
HETATM   27  C   UNK     0      70.943  76.409  67.337  0.00  0.00     0.018 A 
ENDBRANCH  15  21
ENDBRANCH  13  14
ENDBRANCH   3  13
BRANCH  10  28
HETATM   28  O   UNK     0      64.127  73.030  66.398  0.00  0.00    -0.351 OA
BRANCH  28  29
HETATM   29  C   UNK     0      63.806  74.148  67.227  0.00  0.00     0.171 C 
HETATM   30  C   UNK     0      64.438  73.950  68.587  0.00  0.00     0.034 C 
ENDBRANCH  28  29
ENDBRANCH  10  28
TORSDOF 8
ENDMDL
MODEL 3
REMARK VINA RESULT:      -7.2      3.236      7.260
REMARK  8 active torsions:
REMARK  status: ('A' for Active; 'I' for Inactive)
REMARK    1  A    between atoms: O_2  and  C_19 
REMARK    2  A    between atoms: O_2  and  C_24 
REMARK    3  A    between atoms: O_4  and  C_17 
REMARK    4  A    between atoms: N_6  and  C_8 
REMARK    5  A    between atoms: N_6  and  C_11 
REMARK       I    between atoms: N_6  and  C_15 
REMARK    6  A    between atoms: C_8  and  C_9 
REMARK    7  A    between atoms: C_11  and  C_17 
REMARK    8  A    between atoms: C_15  and  C_20 
ROOT
HETATM    1  O   UNK     0      72.377  72.438  63.654  0.00  0.00    -0.268 OA
HETATM    2  N   UNK     0      73.036  74.142  65.041  0.00  0.00    -0.322 N 
HETATM    3  C   UNK     0      70.708  73.367  65.068  0.00  0.00     0.029 A 
HETATM    4  C   UNK     0      71.442  75.179  66.535  0.00  0.00    -0.006 A 
HETATM    5  C   UNK     0      70.422  74.274  66.015  0.00  0.00     0.028 A 
HETATM    6  C   UNK     0      72.743  75.093  66.032  0.00  0.00     0.045 A 
HETATM    7  C   UNK     0      72.102  73.267  64.521  0.00  0.00     0.253 A 
HETATM    8  C   UNK     0      71.150  76.127  67.521  0.00  0.00     0.050 A 
HETATM    9  C   UNK     0      73.748  75.939  66.503  0.00  0.00     0.033 A 
HETATM   10  C   UNK     0      72.152  76.975  67.995  0.00  0.00     0.069 A 
HETATM   11  C   UNK     0      73.449  76.882  67.486  0.00  0.00     0.039 A 
HETATM   12  H   UNK     0      73.989  74.098  64.691  0.00  0.00     0.169 HD
ENDROOT
BRANCH   3  13
HETATM   13  C   UNK     0      69.686  72.424  64.513  0.00  0.00     0.170 C 
BRANCH  13  14
HETATM   14  N   UNK     0      68.428  73.098  64.415  0.00  0.00    -0.342 N 
HETATM   15  C   UNK     0      67.464  72.954  65.435  0.00  0.00     0.254 C 
HETATM   16  O   UNK     0      67.616  72.271  66.448  0.00  0.00    -0.267 OA
BRANCH  14  17
HETATM   17  C   UNK     0      68.214  73.923  63.215  0.00  0.00     0.152 C 
BRANCH  17  18
HETATM   18  C   UNK     0      68.962  73.367  62.017  0.00  0.00     0.184 C 
BRANCH  18  19
HETATM   19  O   UNK     0      69.618  74.430  61.335  0.00  0.00    -0.399 OA
HETATM   20  H   UNK     0      70.536  74.153  61.177  0.00  0.00     0.209 HD
ENDBRANCH  18  19
ENDBRANCH  17  18
ENDBRANCH  14  17
BRANCH  15  21
HETATM   21  C   UNK     0      66.185  73.673  65.322  0.00  0.00     0.032 A 
HETATM   22  C   UNK     0      66.109  74.994  65.735  0.00  0.00     0.018 A 
HETATM   23  C   UNK     0      64.896  75.676  65.628  0.00  0.00     0.020 A 
HETATM   24  C   UNK     0      63.775  75.028  65.107  0.00  0.00     0.011 A 
HETATM   25 Br   UNK     0      62.134  75.952  64.963  0.00  0.00    -0.051 Br
HETATM   26  C   UNK     0      63.867  73.699  64.695  0.00  0.00     0.020 A 
HETATM   27  C   UNK     0      65.080  73.018  64.803  0.00  0.00     0.018 A 
ENDBRANCH  15  21
ENDBRANCH  13  14
ENDBRANCH   3  13
BRANCH  10  28
HETATM   28  O   UNK     0      71.865  77.896  68.955  0.00  0.00    -0.351 OA
BRANCH  28  29
HETATM   29  C   UNK     0      70.658  77.709  69.694  0.00  0.00     0.171 C 
HETATM   30  C   UNK     0      71.001  77.219  71.083  0.00  0.00     0.034 C 
ENDBRANCH  28  29
ENDBRANCH  10  28
TORSDOF 8
ENDMDL
MODEL 4
REMARK VINA RESULT:      -6.9     26.426     28.875
REMARK  8 active torsions:
REMARK  status: ('A' for Active; 'I' for Inactive)
REMARK    1  A    between atoms: O_2  and  C_19 
REMARK    2  A    between atoms: O_2  and  C_24 
REMARK    3  A    between atoms: O_4  and  C_17 
REMARK    4  A    between atoms: N_6  and  C_8 
REMARK    5  A    between atoms: N_6  and  C_11 
REMARK       I    between atoms: N_6  and  C_15 
REMARK    6  A    between atoms: C_8  and  C_9 
REMARK    7  A    between atoms: C_11  and  C_17 
REMARK    8  A    between atoms: C_15  and  C_20 
ROOT
HETATM    1  O   UNK     0      58.735  59.383  47.554  0.00  0.00    -0.268 OA
HETATM    2  N   UNK     0      60.650  59.984  46.446  0.00  0.00    -0.322 N 
HETATM    3  C   UNK     0      60.569  57.880  47.705  0.00  0.00     0.029 A 
HETATM    4  C   UNK     0      62.595  58.548  46.510  0.00  0.00    -0.006 A 
HETATM    5  C   UNK     0      61.838  57.624  47.350  0.00  0.00     0.028 A 
HETATM    6  C   UNK     0      61.977  59.722  46.070  0.00  0.00     0.045 A 
HETATM    7  C   UNK     0      59.898  59.138  47.237  0.00  0.00     0.253 A 
HETATM    8  C   UNK     0      63.917  58.287  46.138  0.00  0.00     0.050 A 
HETATM    9  C   UNK     0      62.666  60.632  45.265  0.00  0.00     0.033 A 
HETATM   10  C   UNK     0      64.609  59.194  45.333  0.00  0.00     0.069 A 
HETATM   11  C   UNK     0      63.985  60.365  44.899  0.00  0.00     0.039 A 
HETATM   12  H   UNK     0      60.222  60.844  46.113  0.00  0.00     0.169 HD
ENDROOT
BRANCH   3  13
HETATM   13  C   UNK     0      59.766  56.954  48.564  0.00  0.00     0.170 C 
BRANCH  13  14
HETATM   14  N   UNK     0      59.843  55.629  48.030  0.00  0.00    -0.342 N 
HETATM   15  C   UNK     0      58.968  55.226  47.000  0.00  0.00     0.254 C 
HETATM   16  O   UNK     0      58.104  55.945  46.497  0.00  0.00    -0.267 OA
BRANCH  14  17
HETATM   17  C   UNK     0      60.865  54.743  48.612  0.00  0.00     0.152 C 
BRANCH  17  18
HETATM   18  C   UNK     0      60.663  54.566  50.106  0.00  0.00     0.184 C 
BRANCH  18  19
HETATM   19  O   UNK     0      59.469  53.829  50.337  0.00  0.00    -0.399 OA
HETATM   20  H   UNK     0      59.086  53.613  49.469  0.00  0.00     0.209 HD
ENDBRANCH  18  19
ENDBRANCH  17  18
ENDBRANCH  14  17
BRANCH  15  21
HETATM   21  C   UNK     0      59.079  53.865  46.453  0.00  0.00     0.032 A 
HETATM   22  C   UNK     0      58.360  52.835  47.041  0.00  0.00     0.018 A 
HETATM   23  C   UNK     0      58.465  51.544  46.524  0.00  0.00     0.020 A 
HETATM   24  C   UNK     0      59.287  51.298  45.423  0.00  0.00     0.011 A 
HETATM   25 Br   UNK     0      59.430  49.549  44.724  0.00  0.00    -0.051 Br
HETATM   26  C   UNK     0      60.004  52.343  44.842  0.00  0.00     0.020 A 
HETATM   27  C   UNK     0      59.899  53.634  45.360  0.00  0.00     0.018 A 
ENDBRANCH  15  21
ENDBRANCH  13  14
ENDBRANCH   3  13
BRANCH  10  28
HETATM   28  O   UNK     0      65.896  58.938  44.972  0.00  0.00    -0.351 OA
BRANCH  28  29
HETATM   29  C   UNK     0      66.100  58.263  43.731  0.00  0.00     0.171 C 
HETATM   30  C   UNK     0      67.158  58.999  42.938  0.00  0.00     0.034 C 
ENDBRANCH  28  29
ENDBRANCH  10  28
TORSDOF 8
ENDMDL
MODEL 5
REMARK VINA RESULT:      -6.9      3.377      7.549
REMARK  8 active torsions:
REMARK  status: ('A' for Active; 'I' for Inactive)
REMARK    1  A    between atoms: O_2  and  C_19 
REMARK    2  A    between atoms: O_2  and  C_24 
REMARK    3  A    between atoms: O_4  and  C_17 
REMARK    4  A    between atoms: N_6  and  C_8 
REMARK    5  A    between atoms: N_6  and  C_11 
REMARK       I    between atoms: N_6  and  C_15 
REMARK    6  A    between atoms: C_8  and  C_9 
REMARK    7  A    between atoms: C_11  and  C_17 
REMARK    8  A    between atoms: C_15  and  C_20 
ROOT
HETATM    1  O   UNK     0      74.548  72.007  63.910  0.00  0.00    -0.268 OA
HETATM    2  N   UNK     0      74.983  73.660  65.438  0.00  0.00    -0.322 N 
HETATM    3  C   UNK     0      72.768  73.505  64.394  0.00  0.00     0.029 A 
HETATM    4  C   UNK     0      73.262  75.254  66.029  0.00  0.00    -0.006 A 
HETATM    5  C   UNK     0      72.365  74.573  65.100  0.00  0.00     0.028 A 
HETATM    6  C   UNK     0      74.568  74.777  66.180  0.00  0.00     0.045 A 
HETATM    7  C   UNK     0      74.168  72.986  64.550  0.00  0.00     0.253 A 
HETATM    8  C   UNK     0      72.849  76.368  66.766  0.00  0.00     0.050 A 
HETATM    9  C   UNK     0      75.457  75.400  67.059  0.00  0.00     0.033 A 
HETATM   10  C   UNK     0      73.735  76.992  67.646  0.00  0.00     0.069 A 
HETATM   11  C   UNK     0      75.037  76.510  67.791  0.00  0.00     0.039 A 
HETATM   12  H   UNK     0      75.936  73.331  65.566  0.00  0.00     0.169 HD
ENDROOT
BRANCH   3  13
HETATM   13  C   UNK     0      71.874  72.784  63.434  0.00  0.00     0.170 C 
BRANCH  13  14
HETATM   14  N   UNK     0      70.509  73.063  63.761  0.00  0.00    -0.342 N 
HETATM   15  C   UNK     0      69.789  72.193  64.606  0.00  0.00     0.254 C 
HETATM   16  O   UNK     0      70.251  71.169  65.110  0.00  0.00    -0.267 OA
BRANCH  14  17
HETATM   17  C   UNK     0      69.926  74.280  63.172  0.00  0.00     0.152 C 
BRANCH  17  18
HETATM   18  C   UNK     0      69.586  74.082  61.706  0.00  0.00     0.184 C 
BRANCH  18  19
HETATM   19  O   UNK     0      68.179  74.195  61.530  0.00  0.00    -0.399 OA
HETATM   20  H   UNK     0      67.854  73.334  61.214  0.00  0.00     0.209 HD
ENDBRANCH  18  19
ENDBRANCH  17  18
ENDBRANCH  14  17
BRANCH  15  21
HETATM   21  C   UNK     0      68.393  72.510  64.944  0.00  0.00     0.032 A 
HETATM   22  C   UNK     0      67.371  72.008  64.152  0.00  0.00     0.018 A 
HETATM   23  C   UNK     0      66.047  72.309  64.471  0.00  0.00     0.020 A 
HETATM   24  C   UNK     0      65.761  73.107  65.580  0.00  0.00     0.011 A 
HETATM   25 Br   UNK     0      63.968  73.515  66.011  0.00  0.00    -0.051 Br
HETATM   26  C   UNK     0      66.799  73.605  66.366  0.00  0.00     0.020 A 
HETATM   27  C   UNK     0      68.123  73.305  66.046  0.00  0.00     0.018 A 
ENDBRANCH  15  21
ENDBRANCH  13  14
ENDBRANCH   3  13
BRANCH  10  28
HETATM   28  O   UNK     0      73.330  78.076  68.363  0.00  0.00    -0.351 OA
BRANCH  28  29
HETATM   29  C   UNK     0      73.150  77.895  69.767  0.00  0.00     0.171 C 
HETATM   30  C   UNK     0      71.678  77.689  70.053  0.00  0.00     0.034 C 
ENDBRANCH  28  29
ENDBRANCH  10  28
TORSDOF 8
ENDMDL
MODEL 6
REMARK VINA RESULT:      -6.6     25.164     26.665
REMARK  8 active torsions:
REMARK  status: ('A' for Active; 'I' for Inactive)
REMARK    1  A    between atoms: O_2  and  C_19 
REMARK    2  A    between atoms: O_2  and  C_24 
REMARK    3  A    between atoms: O_4  and  C_17 
REMARK    4  A    between atoms: N_6  and  C_8 
REMARK    5  A    between atoms: N_6  and  C_11 
REMARK       I    between atoms: N_6  and  C_15 
REMARK    6  A    between atoms: C_8  and  C_9 
REMARK    7  A    between atoms: C_11  and  C_17 
REMARK    8  A    between atoms: C_15  and  C_20 
ROOT
HETATM    1  O   UNK     0      54.212  55.493  58.436  0.00  0.00    -0.268 OA
HETATM    2  N   UNK     0      54.339  55.243  60.712  0.00  0.00    -0.322 N 
HETATM    3  C   UNK     0      54.795  53.335  59.239  0.00  0.00     0.029 A 
HETATM    4  C   UNK     0      54.924  53.101  61.669  0.00  0.00    -0.006 A 
HETATM    5  C   UNK     0      55.026  52.565  60.315  0.00  0.00     0.028 A 
HETATM    6  C   UNK     0      54.579  54.445  61.841  0.00  0.00     0.045 A 
HETATM    7  C   UNK     0      54.424  54.778  59.414  0.00  0.00     0.253 A 
HETATM    8  C   UNK     0      55.162  52.304  62.794  0.00  0.00     0.050 A 
HETATM    9  C   UNK     0      54.472  54.995  63.120  0.00  0.00     0.033 A 
HETATM   10  C   UNK     0      55.056  52.852  64.073  0.00  0.00     0.069 A 
HETATM   11  C   UNK     0      54.710  54.195  64.236  0.00  0.00     0.039 A 
HETATM   12  H   UNK     0      54.090  56.217  60.862  0.00  0.00     0.169 HD
ENDROOT
BRANCH   3  13
HETATM   13  C   UNK     0      54.891  52.817  57.838  0.00  0.00     0.170 C 
BRANCH  13  14
HETATM   14  N   UNK     0      56.268  52.630  57.498  0.00  0.00    -0.342 N 
HETATM   15  C   UNK     0      56.823  51.334  57.467  0.00  0.00     0.254 C 
HETATM   16  O   UNK     0      56.200  50.302  57.718  0.00  0.00    -0.267 OA
BRANCH  14  17
HETATM   17  C   UNK     0      57.042  53.845  57.193  0.00  0.00     0.152 C 
BRANCH  17  18
HETATM   18  C   UNK     0      56.484  54.572  55.983  0.00  0.00     0.184 C 
BRANCH  18  19
HETATM   19  O   UNK     0      56.143  55.904  56.349  0.00  0.00    -0.399 OA
HETATM   20  H   UNK     0      55.732  56.324  55.573  0.00  0.00     0.209 HD
ENDBRANCH  18  19
ENDBRANCH  17  18
ENDBRANCH  14  17
BRANCH  15  21
HETATM   21  C   UNK     0      58.236  51.165  57.096  0.00  0.00     0.032 A 
HETATM   22  C   UNK     0      58.580  51.072  55.756  0.00  0.00     0.018 A 
HETATM   23  C   UNK     0      59.920  50.912  55.402  0.00  0.00     0.020 A 
HETATM   24  C   UNK     0      60.900  50.849  56.394  0.00  0.00     0.011 A 
HETATM   25 Br   UNK     0      62.715  50.632  55.915  0.00  0.00    -0.051 Br
HETATM   26  C   UNK     0      60.540  50.945  57.737  0.00  0.00     0.020 A 
HETATM   27  C   UNK     0      59.200  51.104  58.090  0.00  0.00     0.018 A 
ENDBRANCH  15  21
ENDBRANCH  13  14
ENDBRANCH   3  13
BRANCH  10  28
HETATM   28  O   UNK     0      55.289  52.074  65.167  0.00  0.00    -0.351 OA
BRANCH  28  29
HETATM   29  C   UNK     0      56.157  52.605  66.167  0.00  0.00     0.171 C 
HETATM   30  C   UNK     0      57.580  52.574  65.652  0.00  0.00     0.034 C 
ENDBRANCH  28  29
ENDBRANCH  10  28
TORSDOF 8
ENDMDL
MODEL 7
REMARK VINA RESULT:      -6.3      3.475      7.380
REMARK  8 active torsions:
REMARK  status: ('A' for Active; 'I' for Inactive)
REMARK    1  A    between atoms: O_2  and  C_19 
REMARK    2  A    between atoms: O_2  and  C_24 
REMARK    3  A    between atoms: O_4  and  C_17 
REMARK    4  A    between atoms: N_6  and  C_8 
REMARK    5  A    between atoms: N_6  and  C_11 
REMARK       I    between atoms: N_6  and  C_15 
REMARK    6  A    between atoms: C_8  and  C_9 
REMARK    7  A    between atoms: C_11  and  C_17 
REMARK    8  A    between atoms: C_15  and  C_20 
ROOT
HETATM    1  O   UNK     0      75.616  75.717  66.195  0.00  0.00    -0.268 OA
HETATM    2  N   UNK     0      74.834  76.941  67.969  0.00  0.00    -0.322 N 
HETATM    3  C   UNK     0      73.259  75.791  66.481  0.00  0.00     0.029 A 
HETATM    4  C   UNK     0      72.456  77.102  68.381  0.00  0.00    -0.006 A 
HETATM    5  C   UNK     0      72.234  76.256  67.212  0.00  0.00     0.028 A 
HETATM    6  C   UNK     0      73.767  77.431  68.739  0.00  0.00     0.045 A 
HETATM    7  C   UNK     0      74.669  76.138  66.857  0.00  0.00     0.253 A 
HETATM    8  C   UNK     0      71.393  77.590  69.147  0.00  0.00     0.050 A 
HETATM    9  C   UNK     0      74.022  78.237  69.850  0.00  0.00     0.033 A 
HETATM   10  C   UNK     0      71.645  78.396  70.259  0.00  0.00     0.069 A 
HETATM   11  C   UNK     0      72.956  78.720  70.609  0.00  0.00     0.039 A 
HETATM   12  H   UNK     0      75.778  77.193  68.249  0.00  0.00     0.169 HD
ENDROOT
BRANCH   3  13
HETATM   13  C   UNK     0      73.066  74.922  65.277  0.00  0.00     0.170 C 
BRANCH  13  14
HETATM   14  N   UNK     0      71.742  74.378  65.295  0.00  0.00    -0.342 N 
HETATM   15  C   UNK     0      70.749  74.896  64.438  0.00  0.00     0.254 C 
HETATM   16  O   UNK     0      70.928  75.815  63.639  0.00  0.00    -0.267 OA
BRANCH  14  17
HETATM   17  C   UNK     0      71.496  73.278  66.242  0.00  0.00     0.152 C 
BRANCH  17  18
HETATM   18  C   UNK     0      72.109  71.977  65.756  0.00  0.00     0.184 C 
BRANCH  18  19
HETATM   19  O   UNK     0      71.097  71.170  65.167  0.00  0.00    -0.399 OA
HETATM   20  H   UNK     0      71.519  70.629  64.478  0.00  0.00     0.209 HD
ENDBRANCH  18  19
ENDBRANCH  17  18
ENDBRANCH  14  17
BRANCH  15  21
HETATM   21  C   UNK     0      69.401  74.308  64.461  0.00  0.00     0.032 A 
HETATM   22  C   UNK     0      69.000  73.484  63.420  0.00  0.00     0.018 A 
HETATM   23  C   UNK     0      67.722  72.926  63.441  0.00  0.00     0.020 A 
HETATM   24  C   UNK     0      66.861  73.197  64.506  0.00  0.00     0.011 A 
HETATM   25 Br   UNK     0      65.130  72.441  64.534  0.00  0.00    -0.051 Br
HETATM   26  C   UNK     0      67.277  74.026  65.546  0.00  0.00     0.020 A 
HETATM   27  C   UNK     0      68.555  74.585  65.524  0.00  0.00     0.018 A 
ENDBRANCH  15  21
ENDBRANCH  13  14
ENDBRANCH   3  13
BRANCH  10  28
HETATM   28  O   UNK     0      70.608  78.870  71.003  0.00  0.00    -0.351 OA
BRANCH  28  29
HETATM   29  C   UNK     0      70.506  80.287  71.147  0.00  0.00     0.171 C 
HETATM   30  C   UNK     0      70.584  80.640  72.616  0.00  0.00     0.034 C 
ENDBRANCH  28  29
ENDBRANCH  10  28
TORSDOF 8
ENDMDL
MODEL 8
REMARK VINA RESULT:      -6.1     25.069     26.640
REMARK  8 active torsions:
REMARK  status: ('A' for Active; 'I' for Inactive)
REMARK    1  A    between atoms: O_2  and  C_19 
REMARK    2  A    between atoms: O_2  and  C_24 
REMARK    3  A    between atoms: O_4  and  C_17 
REMARK    4  A    between atoms: N_6  and  C_8 
REMARK    5  A    between atoms: N_6  and  C_11 
REMARK       I    between atoms: N_6  and  C_15 
REMARK    6  A    between atoms: C_8  and  C_9 
REMARK    7  A    between atoms: C_11  and  C_17 
REMARK    8  A    between atoms: C_15  and  C_20 
ROOT
HETATM    1  O   UNK     0      54.064  55.051  58.493  0.00  0.00    -0.268 OA
HETATM    2  N   UNK     0      54.394  55.148  60.760  0.00  0.00    -0.322 N 
HETATM    3  C   UNK     0      54.584  53.005  59.582  0.00  0.00     0.029 A 
HETATM    4  C   UNK     0      54.932  53.142  61.998  0.00  0.00    -0.006 A 
HETATM    5  C   UNK     0      54.868  52.396  60.745  0.00  0.00     0.028 A 
HETATM    6  C   UNK     0      54.690  54.519  61.979  0.00  0.00     0.045 A 
HETATM    7  C   UNK     0      54.324  54.482  59.552  0.00  0.00     0.253 A 
HETATM    8  C   UNK     0      55.226  52.513  63.213  0.00  0.00     0.050 A 
HETATM    9  C   UNK     0      54.742  55.268  63.156  0.00  0.00     0.033 A 
HETATM   10  C   UNK     0      55.279  53.260  64.391  0.00  0.00     0.069 A 
HETATM   11  C   UNK     0      55.036  54.634  64.363  0.00  0.00     0.039 A 
HETATM   12  H   UNK     0      54.223  56.150  60.772  0.00  0.00     0.169 HD
ENDROOT
BRANCH   3  13
HETATM   13  C   UNK     0      54.512  52.270  58.280  0.00  0.00     0.170 C 
BRANCH  13  14
HETATM   14  N   UNK     0      55.553  52.736  57.417  0.00  0.00    -0.342 N 
HETATM   15  C   UNK     0      55.256  53.139  56.098  0.00  0.00     0.254 C 
HETATM   16  O   UNK     0      54.130  53.125  55.601  0.00  0.00    -0.267 OA
BRANCH  14  17
HETATM   17  C   UNK     0      56.912  52.764  57.982  0.00  0.00     0.152 C 
BRANCH  17  18
HETATM   18  C   UNK     0      57.497  51.368  58.094  0.00  0.00     0.184 C 
BRANCH  18  19
HETATM   19  O   UNK     0      58.855  51.457  58.510  0.00  0.00    -0.399 OA
HETATM   20  H   UNK     0      59.319  52.023  57.869  0.00  0.00     0.209 HD
ENDBRANCH  18  19
ENDBRANCH  17  18
ENDBRANCH  14  17
BRANCH  15  21
HETATM   21  C   UNK     0      56.341  53.633  55.236  0.00  0.00     0.032 A 
HETATM   22  C   UNK     0      57.077  52.730  54.485  0.00  0.00     0.018 A 
HETATM   23  C   UNK     0      58.107  53.197  53.667  0.00  0.00     0.020 A 
HETATM   24  C   UNK     0      58.385  54.563  53.609  0.00  0.00     0.011 A 
HETATM   25 Br   UNK     0      59.780  55.195  52.503  0.00  0.00    -0.051 Br
HETATM   26  C   UNK     0      57.637  55.460  54.370  0.00  0.00     0.020 A 
HETATM   27  C   UNK     0      56.608  54.992  55.188  0.00  0.00     0.018 A 
ENDBRANCH  15  21
ENDBRANCH  13  14
ENDBRANCH   3  13
BRANCH  10  28
HETATM   28  O   UNK     0      55.566  52.646  65.572  0.00  0.00    -0.351 OA
BRANCH  28  29
HETATM   29  C   UNK     0      54.650  52.848  66.648  0.00  0.00     0.171 C 
HETATM   30  C   UNK     0      53.459  51.933  66.461  0.00  0.00     0.034 C 
ENDBRANCH  28  29
ENDBRANCH  10  28
TORSDOF 8
ENDMDL
MODEL 9
REMARK VINA RESULT:      -6.1     25.213     27.416
REMARK  8 active torsions:
REMARK  status: ('A' for Active; 'I' for Inactive)
REMARK    1  A    between atoms: O_2  and  C_19 
REMARK    2  A    between atoms: O_2  and  C_24 
REMARK    3  A    between atoms: O_4  and  C_17 
REMARK    4  A    between atoms: N_6  and  C_8 
REMARK    5  A    between atoms: N_6  and  C_11 
REMARK       I    between atoms: N_6  and  C_15 
REMARK    6  A    between atoms: C_8  and  C_9 
REMARK    7  A    between atoms: C_11  and  C_17 
REMARK    8  A    between atoms: C_15  and  C_20 
ROOT
HETATM    1  O   UNK     0      54.550  54.759  58.867  0.00  0.00    -0.268 OA
HETATM    2  N   UNK     0      54.558  54.998  61.147  0.00  0.00    -0.322 N 
HETATM    3  C   UNK     0      54.873  52.782  60.143  0.00  0.00     0.029 A 
HETATM    4  C   UNK     0      54.879  53.069  62.571  0.00  0.00    -0.006 A 
HETATM    5  C   UNK     0      54.979  52.246  61.369  0.00  0.00     0.028 A 
HETATM    6  C   UNK     0      54.668  54.445  62.433  0.00  0.00     0.045 A 
HETATM    7  C   UNK     0      54.647  54.257  59.985  0.00  0.00     0.253 A 
HETATM    8  C   UNK     0      54.987  52.517  63.851  0.00  0.00     0.050 A 
HETATM    9  C   UNK     0      54.567  55.267  63.556  0.00  0.00     0.033 A 
HETATM   10  C   UNK     0      54.887  53.337  64.977  0.00  0.00     0.069 A 
HETATM   11  C   UNK     0      54.676  54.709  64.830  0.00  0.00     0.039 A 
HETATM   12  H   UNK     0      54.405  56.000  61.072  0.00  0.00     0.169 HD
ENDROOT
BRANCH   3  13
HETATM   13  C   UNK     0      54.972  51.966  58.892  0.00  0.00     0.170 C 
BRANCH  13  14
HETATM   14  N   UNK     0      56.032  51.016  59.030  0.00  0.00    -0.342 N 
HETATM   15  C   UNK     0      57.362  51.388  58.740  0.00  0.00     0.254 C 
HETATM   16  O   UNK     0      57.706  52.507  58.360  0.00  0.00    -0.267 OA
BRANCH  14  17
HETATM   17  C   UNK     0      55.653  49.667  59.481  0.00  0.00     0.152 C 
BRANCH  17  18
HETATM   18  C   UNK     0      54.545  49.084  58.622  0.00  0.00     0.184 C 
BRANCH  18  19
HETATM   19  O   UNK     0      53.475  48.658  59.457  0.00  0.00    -0.399 OA
HETATM   20  H   UNK     0      53.681  48.943  60.364  0.00  0.00     0.209 HD
ENDBRANCH  18  19
ENDBRANCH  17  18
ENDBRANCH  14  17
BRANCH  15  21
HETATM   21  C   UNK     0      58.438  50.399  58.908  0.00  0.00     0.032 A 
HETATM   22  C   UNK     0      58.844  49.643  57.819  0.00  0.00     0.018 A 
HETATM   23  C   UNK     0      59.864  48.705  57.978  0.00  0.00     0.020 A 
HETATM   24  C   UNK     0      60.467  48.536  59.225  0.00  0.00     0.011 A 
HETATM   25 Br   UNK     0      61.848  47.264  59.439  0.00  0.00    -0.051 Br
HETATM   26  C   UNK     0      60.049  49.302  60.311  0.00  0.00     0.020 A 
HETATM   27  C   UNK     0      59.028  50.240  60.152  0.00  0.00     0.018 A 
ENDBRANCH  15  21
ENDBRANCH  13  14
ENDBRANCH   3  13
BRANCH  10  28
HETATM   28  O   UNK     0      54.993  52.797  66.222  0.00  0.00    -0.351 OA
BRANCH  28  29
HETATM   29  C   UNK     0      54.374  51.528  66.434  0.00  0.00     0.171 C 
HETATM   30  C   UNK     0      52.968  51.746  66.948  0.00  0.00     0.034 C 
ENDBRANCH  28  29
ENDBRANCH  10  28
TORSDOF 8
ENDMDL
