MODEL 1
REMARK VINA RESULT:      -9.8      0.000      0.000
REMARK  1 active torsions:
REMARK  status: ('A' for Active; 'I' for Inactive)
REMARK    1  A    between atoms: C_19  and  C_21 
ROOT
HETATM    1  O   UNK     0      70.200  73.004  63.205  0.00  0.00    -0.273 OA
HETATM    2  O   UNK     0      72.265  72.060  62.977  0.00  0.00    -0.259 OA
HETATM    3  N   UNK     0      65.738  74.896  63.648  0.00  0.00    -0.380 N 
HETATM    4  C   UNK     0      66.969  74.541  64.206  0.00  0.00     0.045 A 
HETATM    5  C   UNK     0      67.994  73.976  63.411  0.00  0.00     0.004 A 
HETATM    6  C   UNK     0      65.412  74.448  62.298  0.00  0.00     0.123 C 
HETATM    7  C   UNK     0      64.637  75.277  64.529  0.00  0.00     0.123 C 
HETATM    8  C   UNK     0      67.237  74.773  65.578  0.00  0.00    -0.030 A 
HETATM    9  C   UNK     0      67.768  73.722  61.939  0.00  0.00     0.045 C 
HETATM   10  C   UNK     0      66.628  74.571  61.392  0.00  0.00     0.025 C 
HETATM   11  C   UNK     0      65.145  76.148  65.669  0.00  0.00     0.024 C 
HETATM   12  C   UNK     0      66.189  75.386  66.475  0.00  0.00     0.042 C 
HETATM   13  C   UNK     0      69.208  73.606  64.012  0.00  0.00     0.098 A 
HETATM   14  C   UNK     0      68.466  74.396  66.145  0.00  0.00     0.023 A 
HETATM   15  C   UNK     0      69.457  73.807  65.363  0.00  0.00     0.000 A 
HETATM   16  C   UNK     0      70.737  73.403  65.921  0.00  0.00     0.035 A 
HETATM   17  C   UNK     0      71.676  72.833  65.151  0.00  0.00     0.086 A 
HETATM   18  C   UNK     0      71.433  72.594  63.704  0.00  0.00     0.302 A 
ENDROOT
BRANCH  17  19
HETATM   19  C   UNK     0      72.927  72.455  65.732  0.00  0.00     0.145 A 
HETATM   20  N   UNK     0      73.935  73.380  65.708  0.00  0.00    -0.338 N 
HETATM   21  C   UNK     0      75.032  72.818  66.310  0.00  0.00     0.062 A 
HETATM   22  H   UNK     0      73.892  74.317  65.329  0.00  0.00     0.167 HD
HETATM   23  C   UNK     0      74.611  71.543  66.677  0.00  0.00     0.086 A 
HETATM   24  C   UNK     0      76.316  73.303  66.558  0.00  0.00     0.032 A 
HETATM   25  N   UNK     0      73.301  71.336  66.309  0.00  0.00    -0.228 NA
HETATM   26  C   UNK     0      75.512  70.686  67.330  0.00  0.00     0.034 A 
HETATM   27  C   UNK     0      76.808  71.151  67.589  0.00  0.00     0.002 A 
HETATM   28  C   UNK     0      77.201  72.437  67.209  0.00  0.00     0.002 A 
ENDBRANCH  17  19
TORSDOF 1
ENDMDL
MODEL 2
REMARK VINA RESULT:      -9.5      2.998      8.750
REMARK  1 active torsions:
REMARK  status: ('A' for Active; 'I' for Inactive)
REMARK    1  A    between atoms: C_19  and  C_21 
ROOT
HETATM    1  O   UNK     0      68.589  75.545  66.706  0.00  0.00    -0.273 OA
HETATM    2  O   UNK     0      66.326  75.733  66.936  0.00  0.00    -0.259 OA
HETATM    3  N   UNK     0      73.426  75.146  66.358  0.00  0.00    -0.380 N 
HETATM    4  C   UNK     0      72.144  74.657  66.095  0.00  0.00     0.045 A 
HETATM    5  C   UNK     0      70.994  75.370  66.506  0.00  0.00     0.004 A 
HETATM    6  C   UNK     0      73.587  76.263  67.282  0.00  0.00     0.123 C 
HETATM    7  C   UNK     0      74.583  74.289  66.110  0.00  0.00     0.123 C 
HETATM    8  C   UNK     0      71.962  73.450  65.376  0.00  0.00    -0.030 A 
HETATM    9  C   UNK     0      71.130  76.671  67.261  0.00  0.00     0.045 C 
HETATM   10  C   UNK     0      72.500  77.301  67.051  0.00  0.00     0.025 C 
HETATM   11  C   UNK     0      74.402  73.513  64.813  0.00  0.00     0.024 C 
HETATM   12  C   UNK     0      73.150  72.650  64.898  0.00  0.00     0.042 C 
HETATM   13  C   UNK     0      69.721  74.834  66.248  0.00  0.00     0.098 A 
HETATM   14  C   UNK     0      70.673  72.946  65.130  0.00  0.00     0.023 A 
HETATM   15  C   UNK     0      69.546  73.636  65.569  0.00  0.00     0.000 A 
HETATM   16  C   UNK     0      68.201  73.140  65.333  0.00  0.00     0.035 A 
HETATM   17  C   UNK     0      67.129  73.818  65.769  0.00  0.00     0.086 A 
HETATM   18  C   UNK     0      67.285  75.097  66.510  0.00  0.00     0.302 A 
ENDROOT
BRANCH  17  19
HETATM   19  C   UNK     0      65.819  73.303  65.512  0.00  0.00     0.145 A 
HETATM   20  N   UNK     0      64.895  73.409  66.515  0.00  0.00    -0.338 N 
HETATM   21  C   UNK     0      63.723  72.859  66.063  0.00  0.00     0.062 A 
HETATM   22  H   UNK     0      65.032  73.825  67.427  0.00  0.00     0.167 HD
HETATM   23  C   UNK     0      64.014  72.437  64.769  0.00  0.00     0.086 A 
HETATM   24  C   UNK     0      62.471  72.700  66.657  0.00  0.00     0.032 A 
HETATM   25  N   UNK     0      65.321  72.721  64.445  0.00  0.00    -0.228 NA
HETATM   26  C   UNK     0      63.009  71.817  64.008  0.00  0.00     0.034 A 
HETATM   27  C   UNK     0      61.744  71.647  64.584  0.00  0.00     0.002 A 
HETATM   28  C   UNK     0      61.482  72.081  65.886  0.00  0.00     0.002 A 
ENDBRANCH  17  19
TORSDOF 1
ENDMDL
MODEL 3
REMARK VINA RESULT:      -9.4      2.641      3.516
REMARK  1 active torsions:
REMARK  status: ('A' for Active; 'I' for Inactive)
REMARK    1  A    between atoms: C_19  and  C_21 
ROOT
HETATM    1  O   UNK     0      67.557  73.649  62.931  0.00  0.00    -0.273 OA
HETATM    2  O   UNK     0      69.560  73.892  61.864  0.00  0.00    -0.259 OA
HETATM    3  N   UNK     0      63.277  72.999  65.153  0.00  0.00    -0.380 N 
HETATM    4  C   UNK     0      64.644  73.285  65.207  0.00  0.00     0.045 A 
HETATM    5  C   UNK     0      65.419  73.359  64.026  0.00  0.00     0.004 A 
HETATM    6  C   UNK     0      62.698  72.521  63.903  0.00  0.00     0.123 C 
HETATM    7  C   UNK     0      62.555  72.723  66.393  0.00  0.00     0.123 C 
HETATM    8  C   UNK     0      65.281  73.546  66.445  0.00  0.00    -0.030 A 
HETATM    9  C   UNK     0      64.787  73.106  62.678  0.00  0.00     0.045 C 
HETATM   10  C   UNK     0      63.276  73.290  62.724  0.00  0.00     0.025 C 
HETATM   11  C   UNK     0      63.011  73.668  67.495  0.00  0.00     0.024 C 
HETATM   12  C   UNK     0      64.505  73.497  67.738  0.00  0.00     0.042 C 
HETATM   13  C   UNK     0      66.796  73.622  64.121  0.00  0.00     0.098 A 
HETATM   14  C   UNK     0      66.660  73.813  66.502  0.00  0.00     0.023 A 
HETATM   15  C   UNK     0      67.424  73.848  65.338  0.00  0.00     0.000 A 
HETATM   16  C   UNK     0      68.852  74.118  65.364  0.00  0.00     0.035 A 
HETATM   17  C   UNK     0      69.571  74.143  64.232  0.00  0.00     0.086 A 
HETATM   18  C   UNK     0      68.928  73.893  62.915  0.00  0.00     0.302 A 
ENDROOT
BRANCH  17  19
HETATM   19  C   UNK     0      70.973  74.419  64.296  0.00  0.00     0.145 A 
HETATM   20  N   UNK     0      71.389  75.653  63.877  0.00  0.00    -0.338 N 
HETATM   21  C   UNK     0      72.753  75.705  64.021  0.00  0.00     0.062 A 
HETATM   22  H   UNK     0      70.809  76.406  63.533  0.00  0.00     0.167 HD
HETATM   23  C   UNK     0      73.095  74.458  64.535  0.00  0.00     0.086 A 
HETATM   24  C   UNK     0      73.686  76.707  63.753  0.00  0.00     0.032 A 
HETATM   25  N   UNK     0      71.977  73.673  64.699  0.00  0.00    -0.228 NA
HETATM   26  C   UNK     0      74.444  74.175  64.804  0.00  0.00     0.034 A 
HETATM   27  C   UNK     0      75.399  75.166  64.543  0.00  0.00     0.002 A 
HETATM   28  C   UNK     0      75.025  76.408  64.027  0.00  0.00     0.002 A 
ENDBRANCH  17  19
TORSDOF 1
ENDMDL
MODEL 4
REMARK VINA RESULT:      -9.4     24.513     27.126
REMARK  1 active torsions:
REMARK  status: ('A' for Active; 'I' for Inactive)
REMARK    1  A    between atoms: C_19  and  C_21 
ROOT
HETATM    1  O   UNK     0      54.592  54.894  60.608  0.00  0.00    -0.273 OA
HETATM    2  O   UNK     0      54.223  55.694  58.501  0.00  0.00    -0.259 OA
HETATM    3  N   UNK     0      55.248  53.238  65.136  0.00  0.00    -0.380 N 
HETATM    4  C   UNK     0      55.171  53.014  63.758  0.00  0.00     0.045 A 
HETATM    5  C   UNK     0      54.952  54.083  62.858  0.00  0.00     0.004 A 
HETATM    6  C   UNK     0      54.846  54.534  65.671  0.00  0.00     0.123 C 
HETATM    7  C   UNK     0      55.263  52.095  66.046  0.00  0.00     0.123 C 
HETATM    8  C   UNK     0      55.348  51.714  63.224  0.00  0.00    -0.030 A 
HETATM    9  C   UNK     0      54.773  55.492  63.372  0.00  0.00     0.045 C 
HETATM   10  C   UNK     0      55.348  55.655  64.773  0.00  0.00     0.025 C 
HETATM   11  C   UNK     0      56.136  50.981  65.486  0.00  0.00     0.024 C 
HETATM   12  C   UNK     0      55.599  50.534  64.133  0.00  0.00     0.042 C 
HETATM   13  C   UNK     0      54.853  53.816  61.482  0.00  0.00     0.098 A 
HETATM   14  C   UNK     0      55.248  51.484  61.842  0.00  0.00     0.023 A 
HETATM   15  C   UNK     0      54.997  52.536  60.964  0.00  0.00     0.000 A 
HETATM   16  C   UNK     0      54.886  52.331  59.530  0.00  0.00     0.035 A 
HETATM   17  C   UNK     0      54.638  53.357  58.703  0.00  0.00     0.086 A 
HETATM   18  C   UNK     0      54.467  54.737  59.230  0.00  0.00     0.302 A 
ENDROOT
BRANCH  17  19
HETATM   19  C   UNK     0      54.542  53.118  57.296  0.00  0.00     0.145 A 
HETATM   20  N   UNK     0      53.440  53.606  56.650  0.00  0.00    -0.338 N 
HETATM   21  C   UNK     0      53.548  53.269  55.324  0.00  0.00     0.062 A 
HETATM   22  H   UNK     0      52.679  54.133  57.058  0.00  0.00     0.167 HD
HETATM   23  C   UNK     0      54.750  52.573  55.241  0.00  0.00     0.086 A 
HETATM   24  C   UNK     0      52.723  53.506  54.225  0.00  0.00     0.032 A 
HETATM   25  N   UNK     0      55.353  52.489  56.476  0.00  0.00    -0.228 NA
HETATM   26  C   UNK     0      55.170  52.076  53.996  0.00  0.00     0.034 A 
HETATM   27  C   UNK     0      54.357  52.303  52.878  0.00  0.00     0.002 A 
HETATM   28  C   UNK     0      53.155  53.005  52.993  0.00  0.00     0.002 A 
ENDBRANCH  17  19
TORSDOF 1
ENDMDL
MODEL 5
REMARK VINA RESULT:      -9.4      1.992      8.469
REMARK  1 active torsions:
REMARK  status: ('A' for Active; 'I' for Inactive)
REMARK    1  A    between atoms: C_19  and  C_21 
ROOT
HETATM    1  O   UNK     0      72.453  72.284  64.939  0.00  0.00    -0.273 OA
HETATM    2  O   UNK     0      70.649  71.381  63.871  0.00  0.00    -0.259 OA
HETATM    3  N   UNK     0      76.380  74.174  67.104  0.00  0.00    -0.380 N 
HETATM    4  C   UNK     0      75.089  74.316  66.589  0.00  0.00     0.045 A 
HETATM    5  C   UNK     0      74.395  73.209  66.047  0.00  0.00     0.004 A 
HETATM    6  C   UNK     0      77.117  72.940  66.849  0.00  0.00     0.123 C 
HETATM    7  C   UNK     0      77.144  75.367  67.459  0.00  0.00     0.123 C 
HETATM    8  C   UNK     0      74.426  75.568  66.631  0.00  0.00    -0.030 A 
HETATM    9  C   UNK     0      75.048  71.849  65.992  0.00  0.00     0.045 C 
HETATM   10  C   UNK     0      76.196  71.737  66.986  0.00  0.00     0.025 C 
HETATM   11  C   UNK     0      76.247  76.388  68.143  0.00  0.00     0.024 C 
HETATM   12  C   UNK     0      75.109  76.783  67.211  0.00  0.00     0.042 C 
HETATM   13  C   UNK     0      73.109  73.397  65.513  0.00  0.00     0.098 A 
HETATM   14  C   UNK     0      73.137  75.717  66.094  0.00  0.00     0.023 A 
HETATM   15  C   UNK     0      72.473  74.630  65.529  0.00  0.00     0.000 A 
HETATM   16  C   UNK     0      71.140  74.754  64.962  0.00  0.00     0.035 A 
HETATM   17  C   UNK     0      70.522  73.695  64.418  0.00  0.00     0.086 A 
HETATM   18  C   UNK     0      71.182  72.364  64.376  0.00  0.00     0.302 A 
ENDROOT
BRANCH  17  19
HETATM   19  C   UNK     0      69.207  73.852  63.877  0.00  0.00     0.145 A 
HETATM   20  N   UNK     0      69.060  73.689  62.527  0.00  0.00    -0.338 N 
HETATM   21  C   UNK     0      67.736  73.881  62.224  0.00  0.00     0.062 A 
HETATM   22  H   UNK     0      69.784  73.456  61.860  0.00  0.00     0.167 HD
HETATM   23  C   UNK     0      67.137  74.159  63.449  0.00  0.00     0.086 A 
HETATM   24  C   UNK     0      67.034  73.836  61.019  0.00  0.00     0.032 A 
HETATM   25  N   UNK     0      68.066  74.138  64.464  0.00  0.00    -0.228 NA
HETATM   26  C   UNK     0      65.756  74.411  63.494  0.00  0.00     0.034 A 
HETATM   27  C   UNK     0      65.030  74.372  62.297  0.00  0.00     0.002 A 
HETATM   28  C   UNK     0      65.660  74.090  61.083  0.00  0.00     0.002 A 
ENDBRANCH  17  19
TORSDOF 1
ENDMDL
MODEL 6
REMARK VINA RESULT:      -9.1     24.814     26.519
REMARK  1 active torsions:
REMARK  status: ('A' for Active; 'I' for Inactive)
REMARK    1  A    between atoms: C_19  and  C_21 
ROOT
HETATM    1  O   UNK     0      54.667  54.543  61.436  0.00  0.00    -0.273 OA
HETATM    2  O   UNK     0      54.554  55.842  63.310  0.00  0.00    -0.259 OA
HETATM    3  N   UNK     0      55.019  51.851  57.398  0.00  0.00    -0.380 N 
HETATM    4  C   UNK     0      55.015  51.958  58.791  0.00  0.00     0.045 A 
HETATM    5  C   UNK     0      54.806  53.205  59.425  0.00  0.00     0.004 A 
HETATM    6  C   UNK     0      55.066  53.065  56.590  0.00  0.00     0.123 C 
HETATM    7  C   UNK     0      55.444  50.599  56.778  0.00  0.00     0.123 C 
HETATM    8  C   UNK     0      55.182  50.812  59.606  0.00  0.00    -0.030 A 
HETATM    9  C   UNK     0      54.605  54.457  58.604  0.00  0.00     0.045 C 
HETATM   10  C   UNK     0      54.159  54.131  57.185  0.00  0.00     0.025 C 
HETATM   11  C   UNK     0      54.893  49.409  57.551  0.00  0.00     0.024 C 
HETATM   12  C   UNK     0      55.395  49.450  58.989  0.00  0.00     0.042 C 
HETATM   13  C   UNK     0      54.836  53.279  60.828  0.00  0.00     0.098 A 
HETATM   14  C   UNK     0      55.200  50.921  61.007  0.00  0.00     0.023 A 
HETATM   15  C   UNK     0      55.030  52.159  61.624  0.00  0.00     0.000 A 
HETATM   16  C   UNK     0      55.046  52.305  63.070  0.00  0.00     0.035 A 
HETATM   17  C   UNK     0      54.886  53.507  63.643  0.00  0.00     0.086 A 
HETATM   18  C   UNK     0      54.688  54.726  62.816  0.00  0.00     0.302 A 
ENDROOT
BRANCH  17  19
HETATM   19  C   UNK     0      54.900  53.612  65.070  0.00  0.00     0.145 A 
HETATM   20  N   UNK     0      53.725  53.943  65.687  0.00  0.00    -0.338 N 
HETATM   21  C   UNK     0      53.961  53.989  67.038  0.00  0.00     0.062 A 
HETATM   22  H   UNK     0      52.832  54.113  65.243  0.00  0.00     0.167 HD
HETATM   23  C   UNK     0      55.310  53.673  67.165  0.00  0.00     0.086 A 
HETATM   24  C   UNK     0      53.133  54.271  68.125  0.00  0.00     0.032 A 
HETATM   25  N   UNK     0      55.877  53.443  65.932  0.00  0.00    -0.228 NA
HETATM   26  C   UNK     0      55.886  53.633  68.445  0.00  0.00     0.034 A 
HETATM   27  C   UNK     0      55.074  53.912  69.552  0.00  0.00     0.002 A 
HETATM   28  C   UNK     0      53.723  54.226  69.392  0.00  0.00     0.002 A 
ENDBRANCH  17  19
TORSDOF 1
ENDMDL
MODEL 7
REMARK VINA RESULT:      -9.1      2.250      3.409
REMARK  1 active torsions:
REMARK  status: ('A' for Active; 'I' for Inactive)
REMARK    1  A    between atoms: C_19  and  C_21 
ROOT
HETATM    1  O   UNK     0      68.598  74.586  66.293  0.00  0.00    -0.273 OA
HETATM    2  O   UNK     0      70.716  74.766  67.124  0.00  0.00    -0.259 OA
HETATM    3  N   UNK     0      64.065  74.342  64.540  0.00  0.00    -0.380 N 
HETATM    4  C   UNK     0      65.441  74.155  64.383  0.00  0.00     0.045 A 
HETATM    5  C   UNK     0      66.339  74.434  65.440  0.00  0.00     0.004 A 
HETATM    6  C   UNK     0      63.573  75.070  65.705  0.00  0.00     0.123 C 
HETATM    7  C   UNK     0      63.193  74.248  63.373  0.00  0.00     0.123 C 
HETATM    8  C   UNK     0      65.969  73.645  63.172  0.00  0.00    -0.030 A 
HETATM    9  C   UNK     0      65.828  74.965  66.759  0.00  0.00     0.045 C 
HETATM   10  C   UNK     0      64.348  74.662  66.949  0.00  0.00     0.025 C 
HETATM   11  C   UNK     0      63.626  73.096  62.477  0.00  0.00     0.024 C 
HETATM   12  C   UNK     0      65.060  73.314  62.013  0.00  0.00     0.042 C 
HETATM   13  C   UNK     0      67.719  74.260  65.236  0.00  0.00     0.098 A 
HETATM   14  C   UNK     0      67.354  73.477  63.005  0.00  0.00     0.023 A 
HETATM   15  C   UNK     0      68.236  73.788  64.038  0.00  0.00     0.000 A 
HETATM   16  C   UNK     0      69.673  73.628  63.895  0.00  0.00     0.035 A 
HETATM   17  C   UNK     0      70.505  73.939  64.901  0.00  0.00     0.086 A 
HETATM   18  C   UNK     0      69.981  74.458  66.191  0.00  0.00     0.302 A 
ENDROOT
BRANCH  17  19
HETATM   19  C   UNK     0      71.914  73.762  64.727  0.00  0.00     0.145 A 
HETATM   20  N   UNK     0      72.695  74.885  64.746  0.00  0.00    -0.338 N 
HETATM   21  C   UNK     0      73.996  74.492  64.564  0.00  0.00     0.062 A 
HETATM   22  H   UNK     0      72.386  75.838  64.882  0.00  0.00     0.167 HD
HETATM   23  C   UNK     0      73.926  73.108  64.440  0.00  0.00     0.086 A 
HETATM   24  C   UNK     0      75.192  75.208  64.498  0.00  0.00     0.032 A 
HETATM   25  N   UNK     0      72.625  72.672  64.544  0.00  0.00    -0.228 NA
HETATM   26  C   UNK     0      75.109  72.378  64.239  0.00  0.00     0.034 A 
HETATM   27  C   UNK     0      76.322  73.075  64.170  0.00  0.00     0.002 A 
HETATM   28  C   UNK     0      76.360  74.466  64.297  0.00  0.00     0.002 A 
ENDBRANCH  17  19
TORSDOF 1
ENDMDL
MODEL 8
REMARK VINA RESULT:      -9.0     26.368     28.129
REMARK  1 active torsions:
REMARK  status: ('A' for Active; 'I' for Inactive)
REMARK    1  A    between atoms: C_19  and  C_21 
ROOT
HETATM    1  O   UNK     0      53.461  51.857  68.991  0.00  0.00    -0.273 OA
HETATM    2  O   UNK     0      52.792  53.740  67.888  0.00  0.00    -0.259 OA
HETATM    3  N   UNK     0      54.755  47.792  71.333  0.00  0.00    -0.380 N 
HETATM    4  C   UNK     0      54.891  48.670  70.254  0.00  0.00     0.045 A 
HETATM    5  C   UNK     0      54.125  49.856  70.178  0.00  0.00     0.004 A 
HETATM    6  C   UNK     0      53.636  47.965  72.255  0.00  0.00     0.123 C 
HETATM    7  C   UNK     0      55.401  46.484  71.277  0.00  0.00     0.123 C 
HETATM    8  C   UNK     0      55.831  48.412  69.226  0.00  0.00    -0.030 A 
HETATM    9  C   UNK     0      53.120  50.188  71.256  0.00  0.00     0.045 C 
HETATM   10  C   UNK     0      53.418  49.441  72.549  0.00  0.00     0.025 C 
HETATM   11  C   UNK     0      56.790  46.602  70.668  0.00  0.00     0.024 C 
HETATM   12  C   UNK     0      56.689  47.170  69.258  0.00  0.00     0.042 C 
HETATM   13  C   UNK     0      54.269  50.700  69.064  0.00  0.00     0.098 A 
HETATM   14  C   UNK     0      55.954  49.282  68.129  0.00  0.00     0.023 A 
HETATM   15  C   UNK     0      55.169  50.430  68.043  0.00  0.00     0.000 A 
HETATM   16  C   UNK     0      55.271  51.347  66.920  0.00  0.00     0.035 A 
HETATM   17  C   UNK     0      54.502  52.445  66.855  0.00  0.00     0.086 A 
HETATM   18  C   UNK     0      53.521  52.754  67.928  0.00  0.00     0.302 A 
ENDROOT
BRANCH  17  19
HETATM   19  C   UNK     0      54.635  53.329  65.738  0.00  0.00     0.145 A 
HETATM   20  N   UNK     0      55.174  54.563  65.976  0.00  0.00    -0.338 N 
HETATM   21  C   UNK     0      55.209  55.241  64.784  0.00  0.00     0.062 A 
HETATM   22  H   UNK     0      55.504  54.923  66.862  0.00  0.00     0.167 HD
HETATM   23  C   UNK     0      54.671  54.349  63.862  0.00  0.00     0.086 A 
HETATM   24  C   UNK     0      55.652  56.520  64.445  0.00  0.00     0.032 A 
HETATM   25  N   UNK     0      54.319  53.167  64.473  0.00  0.00    -0.228 NA
HETATM   26  C   UNK     0      54.560  54.737  62.517  0.00  0.00     0.034 A 
HETATM   27  C   UNK     0      54.999  56.016  62.152  0.00  0.00     0.002 A 
HETATM   28  C   UNK     0      55.535  56.890  63.101  0.00  0.00     0.002 A 
ENDBRANCH  17  19
TORSDOF 1
ENDMDL
MODEL 9
REMARK VINA RESULT:      -9.0     26.790     28.473
REMARK  1 active torsions:
REMARK  status: ('A' for Active; 'I' for Inactive)
REMARK    1  A    between atoms: C_19  and  C_21 
ROOT
HETATM    1  O   UNK     0      56.147  50.351  67.812  0.00  0.00    -0.273 OA
HETATM    2  O   UNK     0      57.329  51.946  66.685  0.00  0.00    -0.259 OA
HETATM    3  N   UNK     0      53.672  47.008  70.337  0.00  0.00    -0.380 N 
HETATM    4  C   UNK     0      53.706  48.049  69.405  0.00  0.00     0.045 A 
HETATM    5  C   UNK     0      54.927  48.663  69.044  0.00  0.00     0.004 A 
HETATM    6  C   UNK     0      54.861  46.724  71.133  0.00  0.00     0.123 C 
HETATM    7  C   UNK     0      52.383  46.541  70.841  0.00  0.00     0.123 C 
HETATM    8  C   UNK     0      52.519  48.491  68.769  0.00  0.00    -0.030 A 
HETATM    9  C   UNK     0      56.224  48.220  69.679  0.00  0.00     0.045 C 
HETATM   10  C   UNK     0      56.110  46.821  70.269  0.00  0.00     0.025 C 
HETATM   11  C   UNK     0      51.361  46.481  69.715  0.00  0.00     0.024 C 
HETATM   12  C   UNK     0      51.186  47.864  69.101  0.00  0.00     0.042 C 
HETATM   13  C   UNK     0      54.919  49.726  68.124  0.00  0.00     0.098 A 
HETATM   14  C   UNK     0      52.549  49.552  67.848  0.00  0.00     0.023 A 
HETATM   15  C   UNK     0      53.752  50.176  67.525  0.00  0.00     0.000 A 
HETATM   16  C   UNK     0      53.815  51.278  66.579  0.00  0.00     0.035 A 
HETATM   17  C   UNK     0      54.983  51.869  66.285  0.00  0.00     0.086 A 
HETATM   18  C   UNK     0      56.248  51.416  66.921  0.00  0.00     0.302 A 
ENDROOT
BRANCH  17  19
HETATM   19  C   UNK     0      55.008  52.946  65.344  0.00  0.00     0.145 A 
HETATM   20  N   UNK     0      55.438  54.164  65.795  0.00  0.00    -0.338 N 
HETATM   21  C   UNK     0      55.383  55.042  64.742  0.00  0.00     0.062 A 
HETATM   22  H   UNK     0      55.755  54.389  66.728  0.00  0.00     0.167 HD
HETATM   23  C   UNK     0      54.906  54.280  63.680  0.00  0.00     0.086 A 
HETATM   24  C   UNK     0      55.700  56.396  64.634  0.00  0.00     0.032 A 
HETATM   25  N   UNK     0      54.678  52.981  64.072  0.00  0.00    -0.228 NA
HETATM   26  C   UNK     0      54.728  54.889  62.427  0.00  0.00     0.034 A 
HETATM   27  C   UNK     0      55.040  56.248  62.293  0.00  0.00     0.002 A 
HETATM   28  C   UNK     0      55.517  56.986  63.379  0.00  0.00     0.002 A 
ENDBRANCH  17  19
TORSDOF 1
ENDMDL
