MODEL 1
REMARK VINA RESULT:      -8.0      0.000      0.000
REMARK  2 active torsions:
REMARK  status: ('A' for Active; 'I' for Inactive)
REMARK    1  A    between atoms: O_1  and  C_12 
REMARK    2  A    between atoms: C_11  and  C_16 
ROOT
HETATM    1  O   UNK     0      67.807  73.873  66.751  0.00  0.00    -0.267 OA
HETATM    2  N   UNK     0      65.561  73.511  66.310  0.00  0.00    -0.312 N 
HETATM    3  C   UNK     0      64.542  73.182  65.370  0.00  0.00     0.056 A 
HETATM    4  C   UNK     0      65.162  73.929  67.656  0.00  0.00     0.133 C 
HETATM    5  C   UNK     0      63.884  73.260  68.133  0.00  0.00     0.025 C 
HETATM    6  C   UNK     0      62.760  73.543  67.151  0.00  0.00     0.042 C 
HETATM    7  C   UNK     0      63.182  73.191  65.748  0.00  0.00    -0.030 A 
HETATM    8  C   UNK     0      64.901  72.847  64.054  0.00  0.00     0.026 A 
HETATM    9  C   UNK     0      66.913  73.540  65.970  0.00  0.00     0.262 A 
HETATM   10  C   UNK     0      67.280  73.139  64.571  0.00  0.00     0.076 A 
HETATM   11  C   UNK     0      66.323  72.818  63.680  0.00  0.00     0.094 A 
HETATM   12  C   UNK     0      62.194  72.900  64.800  0.00  0.00     0.009 A 
HETATM   13  C   UNK     0      63.891  72.544  63.126  0.00  0.00     0.016 A 
HETATM   14  C   UNK     0      62.547  72.575  63.496  0.00  0.00     0.002 A 
ENDROOT
BRANCH  10  15
HETATM   15  C   UNK     0      68.709  73.116  64.203  0.00  0.00    -0.018 A 
HETATM   16  C   UNK     0      69.305  74.249  63.648  0.00  0.00     0.012 A 
HETATM   17  C   UNK     0      70.655  74.227  63.299  0.00  0.00     0.001 A 
HETATM   18  C   UNK     0      71.409  73.071  63.506  0.00  0.00     0.000 A 
HETATM   19  C   UNK     0      70.813  71.939  64.060  0.00  0.00     0.001 A 
HETATM   20  C   UNK     0      69.462  71.961  64.408  0.00  0.00     0.012 A 
ENDBRANCH  10  15
BRANCH  11  21
HETATM   21  O   UNK     0      66.573  72.442  62.374  0.00  0.00    -0.359 OA
HETATM   22  H   UNK     0      67.200  73.064  61.970  0.00  0.00     0.218 HD
ENDBRANCH  11  21
TORSDOF 2
ENDMDL
MODEL 2
REMARK VINA RESULT:      -7.9     23.334     25.460
REMARK  2 active torsions:
REMARK  status: ('A' for Active; 'I' for Inactive)
REMARK    1  A    between atoms: O_1  and  C_12 
REMARK    2  A    between atoms: C_11  and  C_16 
ROOT
HETATM    1  O   UNK     0      51.999  51.905  66.922  0.00  0.00    -0.267 OA
HETATM    2  N   UNK     0      53.994  52.900  66.292  0.00  0.00    -0.312 N 
HETATM    3  C   UNK     0      55.417  52.935  66.373  0.00  0.00     0.056 A 
HETATM    4  C   UNK     0      53.307  53.989  65.592  0.00  0.00     0.133 C 
HETATM    5  C   UNK     0      54.113  54.556  64.436  0.00  0.00     0.025 C 
HETATM    6  C   UNK     0      55.462  55.040  64.942  0.00  0.00     0.042 C 
HETATM    7  C   UNK     0      56.150  53.957  65.731  0.00  0.00    -0.030 A 
HETATM    8  C   UNK     0      56.090  51.940  67.099  0.00  0.00     0.026 A 
HETATM    9  C   UNK     0      53.232  51.925  66.932  0.00  0.00     0.262 A 
HETATM   10  C   UNK     0      53.971  50.847  67.670  0.00  0.00     0.076 A 
HETATM   11  C   UNK     0      55.316  50.868  67.742  0.00  0.00     0.094 A 
HETATM   12  C   UNK     0      57.545  53.994  65.852  0.00  0.00     0.009 A 
HETATM   13  C   UNK     0      57.491  51.991  67.192  0.00  0.00     0.016 A 
HETATM   14  C   UNK     0      58.212  53.014  66.577  0.00  0.00     0.002 A 
ENDROOT
BRANCH  10  15
HETATM   15  C   UNK     0      53.186  49.776  68.314  0.00  0.00    -0.018 A 
HETATM   16  C   UNK     0      52.639  48.751  67.542  0.00  0.00     0.012 A 
HETATM   17  C   UNK     0      51.897  47.740  68.150  0.00  0.00     0.001 A 
HETATM   18  C   UNK     0      51.703  47.753  69.532  0.00  0.00     0.000 A 
HETATM   19  C   UNK     0      52.251  48.777  70.303  0.00  0.00     0.001 A 
HETATM   20  C   UNK     0      52.992  49.789  69.695  0.00  0.00     0.012 A 
ENDBRANCH  10  15
BRANCH  11  21
HETATM   21  O   UNK     0      56.073  49.918  68.401  0.00  0.00    -0.359 OA
HETATM   22  H   UNK     0      55.535  49.495  69.090  0.00  0.00     0.218 HD
ENDBRANCH  11  21
TORSDOF 2
ENDMDL
MODEL 3
REMARK VINA RESULT:      -7.8      1.518      2.984
REMARK  2 active torsions:
REMARK  status: ('A' for Active; 'I' for Inactive)
REMARK    1  A    between atoms: O_1  and  C_12 
REMARK    2  A    between atoms: C_11  and  C_16 
ROOT
HETATM    1  O   UNK     0      66.716  74.473  62.499  0.00  0.00    -0.267 OA
HETATM    2  N   UNK     0      65.160  74.603  64.211  0.00  0.00    -0.312 N 
HETATM    3  C   UNK     0      64.810  74.320  65.563  0.00  0.00     0.056 A 
HETATM    4  C   UNK     0      64.132  75.154  63.324  0.00  0.00     0.133 C 
HETATM    5  C   UNK     0      63.137  76.046  64.047  0.00  0.00     0.025 C 
HETATM    6  C   UNK     0      62.481  75.269  65.176  0.00  0.00     0.042 C 
HETATM    7  C   UNK     0      63.524  74.631  66.055  0.00  0.00    -0.030 A 
HETATM    8  C   UNK     0      65.760  73.727  66.410  0.00  0.00     0.026 A 
HETATM    9  C   UNK     0      66.409  74.288  63.679  0.00  0.00     0.262 A 
HETATM   10  C   UNK     0      67.424  73.692  64.610  0.00  0.00     0.076 A 
HETATM   11  C   UNK     0      67.104  73.431  65.892  0.00  0.00     0.094 A 
HETATM   12  C   UNK     0      63.189  74.312  67.377  0.00  0.00     0.009 A 
HETATM   13  C   UNK     0      65.403  73.432  67.737  0.00  0.00     0.016 A 
HETATM   14  C   UNK     0      64.125  73.718  68.215  0.00  0.00     0.002 A 
ENDROOT
BRANCH  10  15
HETATM   15  C   UNK     0      68.769  73.396  64.081  0.00  0.00    -0.018 A 
HETATM   16  C   UNK     0      69.770  74.366  64.137  0.00  0.00     0.012 A 
HETATM   17  C   UNK     0      71.041  74.087  63.637  0.00  0.00     0.001 A 
HETATM   18  C   UNK     0      71.312  72.836  63.082  0.00  0.00     0.000 A 
HETATM   19  C   UNK     0      70.312  71.866  63.027  0.00  0.00     0.001 A 
HETATM   20  C   UNK     0      69.040  72.145  63.526  0.00  0.00     0.012 A 
ENDBRANCH  10  15
BRANCH  11  21
HETATM   21  O   UNK     0      67.975  72.882  66.814  0.00  0.00    -0.359 OA
HETATM   22  H   UNK     0      68.742  73.468  66.926  0.00  0.00     0.218 HD
ENDBRANCH  11  21
TORSDOF 2
ENDMDL
MODEL 4
REMARK VINA RESULT:      -7.6     22.215     23.793
REMARK  2 active torsions:
REMARK  status: ('A' for Active; 'I' for Inactive)
REMARK    1  A    between atoms: O_1  and  C_12 
REMARK    2  A    between atoms: C_11  and  C_16 
ROOT
HETATM    1  O   UNK     0      55.270  51.065  64.210  0.00  0.00    -0.267 OA
HETATM    2  N   UNK     0      55.299  51.680  61.976  0.00  0.00    -0.312 N 
HETATM    3  C   UNK     0      55.062  52.675  60.984  0.00  0.00     0.056 A 
HETATM    4  C   UNK     0      55.644  50.325  61.539  0.00  0.00     0.133 C 
HETATM    5  C   UNK     0      56.437  50.301  60.244  0.00  0.00     0.025 C 
HETATM    6  C   UNK     0      55.656  51.011  59.152  0.00  0.00     0.042 C 
HETATM    7  C   UNK     0      55.226  52.379  59.613  0.00  0.00    -0.030 A 
HETATM    8  C   UNK     0      54.662  53.961  61.380  0.00  0.00     0.026 A 
HETATM    9  C   UNK     0      55.124  51.924  63.337  0.00  0.00     0.262 A 
HETATM   10  C   UNK     0      54.735  53.316  63.744  0.00  0.00     0.076 A 
HETATM   11  C   UNK     0      54.518  54.263  62.811  0.00  0.00     0.094 A 
HETATM   12  C   UNK     0      54.953  53.360  58.652  0.00  0.00     0.009 A 
HETATM   13  C   UNK     0      54.410  54.932  60.396  0.00  0.00     0.016 A 
HETATM   14  C   UNK     0      54.550  54.632  59.041  0.00  0.00     0.002 A 
ENDROOT
BRANCH  10  15
HETATM   15  C   UNK     0      54.591  53.609  65.182  0.00  0.00    -0.018 A 
HETATM   16  C   UNK     0      53.333  53.548  65.784  0.00  0.00     0.012 A 
HETATM   17  C   UNK     0      53.196  53.826  67.144  0.00  0.00     0.001 A 
HETATM   18  C   UNK     0      54.318  54.164  67.902  0.00  0.00     0.000 A 
HETATM   19  C   UNK     0      55.574  54.225  67.300  0.00  0.00     0.001 A 
HETATM   20  C   UNK     0      55.711  53.948  65.940  0.00  0.00     0.012 A 
ENDBRANCH  10  15
BRANCH  11  21
HETATM   21  O   UNK     0      54.156  55.566  63.098  0.00  0.00    -0.359 OA
HETATM   22  H   UNK     0      54.911  56.156  62.938  0.00  0.00     0.218 HD
ENDBRANCH  11  21
TORSDOF 2
ENDMDL
MODEL 5
REMARK VINA RESULT:      -7.6      2.707      3.506
REMARK  2 active torsions:
REMARK  status: ('A' for Active; 'I' for Inactive)
REMARK    1  A    between atoms: O_1  and  C_12 
REMARK    2  A    between atoms: C_11  and  C_16 
ROOT
HETATM    1  O   UNK     0      65.456  76.792  63.976  0.00  0.00    -0.267 OA
HETATM    2  N   UNK     0      63.287  76.069  64.354  0.00  0.00    -0.312 N 
HETATM    3  C   UNK     0      62.397  75.004  64.678  0.00  0.00     0.056 A 
HETATM    4  C   UNK     0      62.718  77.360  63.959  0.00  0.00     0.133 C 
HETATM    5  C   UNK     0      61.399  77.665  64.647  0.00  0.00     0.025 C 
HETATM    6  C   UNK     0      60.403  76.554  64.360  0.00  0.00     0.042 C 
HETATM    7  C   UNK     0      61.000  75.211  64.688  0.00  0.00    -0.030 A 
HETATM    8  C   UNK     0      62.921  73.740  64.990  0.00  0.00     0.026 A 
HETATM    9  C   UNK     0      64.670  75.901  64.307  0.00  0.00     0.262 A 
HETATM   10  C   UNK     0      65.213  74.553  64.683  0.00  0.00     0.076 A 
HETATM   11  C   UNK     0      64.378  73.545  65.000  0.00  0.00     0.094 A 
HETATM   12  C   UNK     0      60.142  74.142  64.974  0.00  0.00     0.009 A 
HETATM   13  C   UNK     0      62.038  72.689  65.290  0.00  0.00     0.016 A 
HETATM   14  C   UNK     0      60.658  72.888  65.276  0.00  0.00     0.002 A 
ENDROOT
BRANCH  10  15
HETATM   15  C   UNK     0      66.677  74.366  64.688  0.00  0.00    -0.018 A 
HETATM   16  C   UNK     0      67.332  73.964  63.523  0.00  0.00     0.012 A 
HETATM   17  C   UNK     0      68.715  73.786  63.527  0.00  0.00     0.001 A 
HETATM   18  C   UNK     0      69.443  74.011  64.696  0.00  0.00     0.000 A 
HETATM   19  C   UNK     0      68.788  74.413  65.860  0.00  0.00     0.001 A 
HETATM   20  C   UNK     0      67.405  74.590  65.856  0.00  0.00     0.012 A 
ENDBRANCH  10  15
BRANCH  11  21
HETATM   21  O   UNK     0      64.794  72.276  65.355  0.00  0.00    -0.359 OA
HETATM   22  H   UNK     0      64.606  72.124  66.296  0.00  0.00     0.218 HD
ENDBRANCH  11  21
TORSDOF 2
ENDMDL
MODEL 6
REMARK VINA RESULT:      -7.3      1.765      5.929
REMARK  2 active torsions:
REMARK  status: ('A' for Active; 'I' for Inactive)
REMARK    1  A    between atoms: O_1  and  C_12 
REMARK    2  A    between atoms: C_11  and  C_16 
ROOT
HETATM    1  O   UNK     0      65.460  73.211  66.755  0.00  0.00    -0.267 OA
HETATM    2  N   UNK     0      67.252  73.594  65.337  0.00  0.00    -0.312 N 
HETATM    3  C   UNK     0      67.743  73.739  64.007  0.00  0.00     0.056 A 
HETATM    4  C   UNK     0      68.217  73.554  66.438  0.00  0.00     0.133 C 
HETATM    5  C   UNK     0      69.450  74.401  66.180  0.00  0.00     0.025 C 
HETATM    6  C   UNK     0      70.120  73.952  64.892  0.00  0.00     0.042 C 
HETATM    7  C   UNK     0      69.123  73.913  63.764  0.00  0.00    -0.030 A 
HETATM    8  C   UNK     0      66.840  73.709  62.932  0.00  0.00     0.026 A 
HETATM    9  C   UNK     0      65.901  73.394  65.619  0.00  0.00     0.262 A 
HETATM   10  C   UNK     0      64.947  73.405  64.460  0.00  0.00     0.076 A 
HETATM   11  C   UNK     0      65.403  73.552  63.201  0.00  0.00     0.094 A 
HETATM   12  C   UNK     0      69.589  74.018  62.448  0.00  0.00     0.009 A 
HETATM   13  C   UNK     0      67.333  73.833  61.622  0.00  0.00     0.016 A 
HETATM   14  C   UNK     0      68.698  73.981  61.382  0.00  0.00     0.002 A 
ENDROOT
BRANCH  10  15
HETATM   15  C   UNK     0      63.507  73.244  64.739  0.00  0.00    -0.018 A 
HETATM   16  C   UNK     0      62.927  71.976  64.699  0.00  0.00     0.012 A 
HETATM   17  C   UNK     0      61.566  71.823  64.962  0.00  0.00     0.001 A 
HETATM   18  C   UNK     0      60.785  72.939  65.265  0.00  0.00     0.000 A 
HETATM   19  C   UNK     0      61.366  74.207  65.304  0.00  0.00     0.001 A 
HETATM   20  C   UNK     0      62.726  74.360  65.040  0.00  0.00     0.012 A 
ENDBRANCH  10  15
BRANCH  11  21
HETATM   21  O   UNK     0      64.596  73.571  62.080  0.00  0.00    -0.359 OA
HETATM   22  H   UNK     0      64.141  74.428  62.021  0.00  0.00     0.218 HD
ENDBRANCH  11  21
TORSDOF 2
ENDMDL
MODEL 7
REMARK VINA RESULT:      -7.2     24.666     27.334
REMARK  2 active torsions:
REMARK  status: ('A' for Active; 'I' for Inactive)
REMARK    1  A    between atoms: O_1  and  C_12 
REMARK    2  A    between atoms: C_11  and  C_16 
ROOT
HETATM    1  O   UNK     0      55.650  57.069  84.220  0.00  0.00    -0.267 OA
HETATM    2  N   UNK     0      57.324  55.575  84.801  0.00  0.00    -0.312 N 
HETATM    3  C   UNK     0      58.291  54.611  84.394  0.00  0.00     0.056 A 
HETATM    4  C   UNK     0      57.089  55.768  86.234  0.00  0.00     0.133 C 
HETATM    5  C   UNK     0      58.334  55.548  87.077  0.00  0.00     0.025 C 
HETATM    6  C   UNK     0      58.880  54.152  86.827  0.00  0.00     0.042 C 
HETATM    7  C   UNK     0      59.055  53.908  85.351  0.00  0.00    -0.030 A 
HETATM    8  C   UNK     0      58.480  54.361  83.026  0.00  0.00     0.026 A 
HETATM    9  C   UNK     0      56.530  56.271  83.890  0.00  0.00     0.262 A 
HETATM   10  C   UNK     0      56.776  56.020  82.431  0.00  0.00     0.076 A 
HETATM   11  C   UNK     0      57.695  55.116  82.039  0.00  0.00     0.094 A 
HETATM   12  C   UNK     0      59.975  52.939  84.932  0.00  0.00     0.009 A 
HETATM   13  C   UNK     0      59.420  53.394  82.631  0.00  0.00     0.016 A 
HETATM   14  C   UNK     0      60.158  52.685  83.578  0.00  0.00     0.002 A 
ENDROOT
BRANCH  10  15
HETATM   15  C   UNK     0      55.981  56.780  81.447  0.00  0.00    -0.018 A 
HETATM   16  C   UNK     0      56.473  57.980  80.932  0.00  0.00     0.012 A 
HETATM   17  C   UNK     0      55.722  58.699  80.002  0.00  0.00     0.001 A 
HETATM   18  C   UNK     0      54.480  58.218  79.588  0.00  0.00     0.000 A 
HETATM   19  C   UNK     0      53.989  57.020  80.104  0.00  0.00     0.001 A 
HETATM   20  C   UNK     0      54.739  56.300  81.034  0.00  0.00     0.012 A 
ENDBRANCH  10  15
BRANCH  11  21
HETATM   21  O   UNK     0      57.981  54.823  80.719  0.00  0.00    -0.359 OA
HETATM   22  H   UNK     0      58.900  55.071  80.523  0.00  0.00     0.218 HD
ENDBRANCH  11  21
TORSDOF 2
ENDMDL
MODEL 8
REMARK VINA RESULT:      -7.2      1.872      6.174
REMARK  2 active torsions:
REMARK  status: ('A' for Active; 'I' for Inactive)
REMARK    1  A    between atoms: O_1  and  C_12 
REMARK    2  A    between atoms: C_11  and  C_16 
ROOT
HETATM    1  O   UNK     0      67.436  74.883  66.590  0.00  0.00    -0.267 OA
HETATM    2  N   UNK     0      69.451  74.237  65.646  0.00  0.00    -0.312 N 
HETATM    3  C   UNK     0      70.144  73.510  64.635  0.00  0.00     0.056 A 
HETATM    4  C   UNK     0      70.229  74.847  66.726  0.00  0.00     0.133 C 
HETATM    5  C   UNK     0      71.608  75.304  66.282  0.00  0.00     0.025 C 
HETATM    6  C   UNK     0      72.373  74.129  65.697  0.00  0.00     0.042 C 
HETATM    7  C   UNK     0      71.555  73.441  64.636  0.00  0.00    -0.030 A 
HETATM    8  C   UNK     0      69.412  72.859  63.629  0.00  0.00     0.026 A 
HETATM    9  C   UNK     0      68.059  74.307  65.696  0.00  0.00     0.262 A 
HETATM   10  C   UNK     0      67.295  73.639  64.590  0.00  0.00     0.076 A 
HETATM   11  C   UNK     0      67.945  72.959  63.626  0.00  0.00     0.094 A 
HETATM   12  C   UNK     0      72.215  72.693  63.654  0.00  0.00     0.009 A 
HETATM   13  C   UNK     0      70.100  72.128  62.647  0.00  0.00     0.016 A 
HETATM   14  C   UNK     0      71.491  72.041  62.662  0.00  0.00     0.002 A 
ENDROOT
BRANCH  10  15
HETATM   15  C   UNK     0      65.823  73.742  64.596  0.00  0.00    -0.018 A 
HETATM   16  C   UNK     0      65.058  72.759  65.224  0.00  0.00     0.012 A 
HETATM   17  C   UNK     0      63.667  72.856  65.230  0.00  0.00     0.001 A 
HETATM   18  C   UNK     0      63.041  73.936  64.607  0.00  0.00     0.000 A 
HETATM   19  C   UNK     0      63.807  74.918  63.979  0.00  0.00     0.001 A 
HETATM   20  C   UNK     0      65.198  74.821  63.973  0.00  0.00     0.012 A 
ENDBRANCH  10  15
BRANCH  11  21
HETATM   21  O   UNK     0      67.320  72.314  62.576  0.00  0.00    -0.359 OA
HETATM   22  H   UNK     0      67.210  72.932  61.834  0.00  0.00     0.218 HD
ENDBRANCH  11  21
TORSDOF 2
ENDMDL
MODEL 9
REMARK VINA RESULT:      -7.1     22.781     24.724
REMARK  2 active torsions:
REMARK  status: ('A' for Active; 'I' for Inactive)
REMARK    1  A    between atoms: O_1  and  C_12 
REMARK    2  A    between atoms: C_11  and  C_16 
ROOT
HETATM    1  O   UNK     0      52.735  53.111  56.572  0.00  0.00    -0.267 OA
HETATM    2  N   UNK     0      53.902  53.553  54.620  0.00  0.00    -0.312 N 
HETATM    3  C   UNK     0      55.092  54.025  53.992  0.00  0.00     0.056 A 
HETATM    4  C   UNK     0      52.743  53.246  53.778  0.00  0.00     0.133 C 
HETATM    5  C   UNK     0      53.125  52.727  52.403  0.00  0.00     0.025 C 
HETATM    6  C   UNK     0      54.016  53.740  51.703  0.00  0.00     0.042 C 
HETATM    7  C   UNK     0      55.173  54.126  52.586  0.00  0.00    -0.030 A 
HETATM    8  C   UNK     0      56.190  54.391  54.786  0.00  0.00     0.026 A 
HETATM    9  C   UNK     0      53.771  53.463  56.005  0.00  0.00     0.262 A 
HETATM   10  C   UNK     0      54.970  53.821  56.834  0.00  0.00     0.076 A 
HETATM   11  C   UNK     0      56.101  54.258  56.247  0.00  0.00     0.094 A 
HETATM   12  C   UNK     0      56.338  54.625  51.991  0.00  0.00     0.009 A 
HETATM   13  C   UNK     0      57.353  54.874  54.163  0.00  0.00     0.016 A 
HETATM   14  C   UNK     0      57.424  54.995  52.775  0.00  0.00     0.002 A 
ENDROOT
BRANCH  10  15
HETATM   15  C   UNK     0      54.870  53.687  58.300  0.00  0.00    -0.018 A 
HETATM   16  C   UNK     0      55.215  52.484  58.916  0.00  0.00     0.012 A 
HETATM   17  C   UNK     0      55.121  52.357  60.301  0.00  0.00     0.001 A 
HETATM   18  C   UNK     0      54.682  53.434  61.071  0.00  0.00     0.000 A 
HETATM   19  C   UNK     0      54.338  54.637  60.456  0.00  0.00     0.001 A 
HETATM   20  C   UNK     0      54.431  54.764  59.070  0.00  0.00     0.012 A 
ENDBRANCH  10  15
BRANCH  11  21
HETATM   21  O   UNK     0      57.246  54.610  56.935  0.00  0.00    -0.359 OA
HETATM   22  H   UNK     0      57.835  55.115  56.350  0.00  0.00     0.218 HD
ENDBRANCH  11  21
TORSDOF 2
ENDMDL
