MODEL 1
REMARK VINA RESULT:      -7.9      0.000      0.000
REMARK  5 active torsions:
REMARK  status: ('A' for Active; 'I' for Inactive)
REMARK    1  A    between atoms: S_2  and  C_15 
REMARK    2  A    between atoms: S_2  and  C_20 
REMARK    3  A    between atoms: N_5  and  C_12 
REMARK       I    between atoms: N_5  and  C_16 
REMARK    4  A    between atoms: C_10  and  C_11 
REMARK    5  A    between atoms: C_15  and  C_16 
ROOT
HETATM    1  O   UNK     0      61.473  78.052  65.514  0.00  0.00    -0.272 OA
HETATM    2  N   UNK     0      62.816  78.228  63.585  0.00  0.00    -0.155 N 
HETATM    3  C   UNK     0      62.364  77.646  64.773  0.00  0.00     0.245 C 
HETATM    4  H   UNK     0      63.574  77.781  63.076  0.00  0.00     0.187 HD
ENDROOT
BRANCH   2   5
HETATM    5  C   UNK     0      62.340  79.391  63.006  0.00  0.00     0.737 A 
HETATM    6  N   UNK     0      61.124  79.330  62.346  0.00  0.00    -0.052 NA
HETATM    7  C   UNK     0      60.871  80.531  61.878  0.00  0.00     0.145 A 
HETATM    8  S   UNK     0      62.102  81.666  62.255  0.00  0.00     0.052 SA
HETATM    9  N   UNK     0      63.022  80.534  63.074  0.00  0.00    -0.021 NA
BRANCH   7  10
HETATM   10  C   UNK     0      59.713  80.937  61.122  0.00  0.00     0.002 A 
HETATM   11  C   UNK     0      59.220  82.237  61.243  0.00  0.00     0.014 A 
HETATM   12  C   UNK     0      58.099  82.629  60.512  0.00  0.00     0.001 A 
HETATM   13  C   UNK     0      57.471  81.721  59.658  0.00  0.00     0.000 A 
HETATM   14  C   UNK     0      57.964  80.422  59.537  0.00  0.00     0.001 A 
HETATM   15  C   UNK     0      59.084  80.030  60.269  0.00  0.00     0.014 A 
ENDBRANCH   7  10
ENDBRANCH   2   5
BRANCH   3  16
HETATM   16  C   UNK     0      63.131  76.388  65.119  0.00  0.00     0.185 C 
BRANCH  16  17
HETATM   17  S   UNK     0      62.512  75.744  66.691  0.00  0.00    -0.092 SA
BRANCH  17  18
HETATM   18  C   UNK     0      62.103  74.051  66.196  0.00  0.00     0.159 A 
HETATM   19  S   UNK     0      62.417  73.494  64.642  0.00  0.00    -0.045 SA
HETATM   20  C   UNK     0      61.742  72.017  65.195  0.00  0.00     0.096 A 
HETATM   21  N   UNK     0      61.342  72.029  66.449  0.00  0.00    -0.146 NA
HETATM   22  C   UNK     0      61.651  70.860  64.282  0.00  0.00     0.081 C 
HETATM   23  N   UNK     0      61.561  73.257  67.046  0.00  0.00    -0.135 NA
ENDBRANCH  17  18
ENDBRANCH  16  17
ENDBRANCH   3  16
TORSDOF 5
ENDMDL
MODEL 2
REMARK VINA RESULT:      -7.8     11.023     14.850
REMARK  5 active torsions:
REMARK  status: ('A' for Active; 'I' for Inactive)
REMARK    1  A    between atoms: S_2  and  C_15 
REMARK    2  A    between atoms: S_2  and  C_20 
REMARK    3  A    between atoms: N_5  and  C_12 
REMARK       I    between atoms: N_5  and  C_16 
REMARK    4  A    between atoms: C_10  and  C_11 
REMARK    5  A    between atoms: C_15  and  C_16 
ROOT
HETATM    1  O   UNK     0      71.352  71.535  63.600  0.00  0.00    -0.272 OA
HETATM    2  N   UNK     0      71.484  72.319  65.819  0.00  0.00    -0.155 N 
HETATM    3  C   UNK     0      70.837  71.901  64.653  0.00  0.00     0.245 C 
HETATM    4  H   UNK     0      70.923  72.602  66.618  0.00  0.00     0.187 HD
ENDROOT
BRANCH   2   5
HETATM    5  C   UNK     0      72.851  72.404  66.015  0.00  0.00     0.737 A 
HETATM    6  N   UNK     0      73.527  71.244  66.354  0.00  0.00    -0.052 NA
HETATM    7  C   UNK     0      74.795  71.555  66.492  0.00  0.00     0.145 A 
HETATM    8  S   UNK     0      75.109  73.217  66.207  0.00  0.00     0.052 SA
HETATM    9  N   UNK     0      73.503  73.560  65.886  0.00  0.00    -0.021 NA
BRANCH   7  10
HETATM   10  C   UNK     0      75.871  70.660  66.841  0.00  0.00     0.002 A 
HETATM   11  C   UNK     0      76.111  69.523  66.070  0.00  0.00     0.014 A 
HETATM   12  C   UNK     0      77.151  68.657  66.410  0.00  0.00     0.001 A 
HETATM   13  C   UNK     0      77.951  68.930  67.520  0.00  0.00     0.000 A 
HETATM   14  C   UNK     0      77.710  70.067  68.291  0.00  0.00     0.001 A 
HETATM   15  C   UNK     0      76.670  70.932  67.952  0.00  0.00     0.014 A 
ENDBRANCH   7  10
ENDBRANCH   2   5
BRANCH   3  16
HETATM   16  C   UNK     0      69.330  71.954  64.787  0.00  0.00     0.185 C 
BRANCH  16  17
HETATM   17  S   UNK     0      68.805  73.684  64.753  0.00  0.00    -0.092 SA
BRANCH  17  18
HETATM   18  C   UNK     0      67.264  73.561  65.698  0.00  0.00     0.159 A 
HETATM   19  S   UNK     0      65.767  73.568  64.935  0.00  0.00    -0.045 SA
HETATM   20  C   UNK     0      65.126  73.427  66.520  0.00  0.00     0.096 A 
HETATM   21  N   UNK     0      66.027  73.387  67.478  0.00  0.00    -0.146 NA
HETATM   22  C   UNK     0      63.665  73.360  66.720  0.00  0.00     0.081 C 
HETATM   23  N   UNK     0      67.314  73.468  66.977  0.00  0.00    -0.135 NA
ENDBRANCH  17  18
ENDBRANCH  16  17
ENDBRANCH   3  16
TORSDOF 5
ENDMDL
MODEL 3
REMARK VINA RESULT:      -7.8     23.491     26.124
REMARK  5 active torsions:
REMARK  status: ('A' for Active; 'I' for Inactive)
REMARK    1  A    between atoms: S_2  and  C_15 
REMARK    2  A    between atoms: S_2  and  C_20 
REMARK    3  A    between atoms: N_5  and  C_12 
REMARK       I    between atoms: N_5  and  C_16 
REMARK    4  A    between atoms: C_10  and  C_11 
REMARK    5  A    between atoms: C_15  and  C_16 
ROOT
HETATM    1  O   UNK     0      54.977  52.881  60.654  0.00  0.00    -0.272 OA
HETATM    2  N   UNK     0      54.525  55.176  60.943  0.00  0.00    -0.155 N 
HETATM    3  C   UNK     0      54.632  53.980  60.228  0.00  0.00     0.245 C 
HETATM    4  H   UNK     0      54.232  56.017  60.453  0.00  0.00     0.187 HD
ENDROOT
BRANCH   2   5
HETATM    5  C   UNK     0      54.791  55.357  62.289  0.00  0.00     0.737 A 
HETATM    6  N   UNK     0      54.190  54.491  63.186  0.00  0.00    -0.052 NA
HETATM    7  C   UNK     0      54.577  54.844  64.390  0.00  0.00     0.145 A 
HETATM    8  S   UNK     0      55.640  56.191  64.382  0.00  0.00     0.052 SA
HETATM    9  N   UNK     0      55.597  56.329  62.715  0.00  0.00    -0.021 NA
BRANCH   7  10
HETATM   10  C   UNK     0      54.199  54.223  65.636  0.00  0.00     0.002 A 
HETATM   11  C   UNK     0      54.997  54.387  66.768  0.00  0.00     0.014 A 
HETATM   12  C   UNK     0      54.631  53.784  67.972  0.00  0.00     0.001 A 
HETATM   13  C   UNK     0      53.466  53.019  68.044  0.00  0.00     0.000 A 
HETATM   14  C   UNK     0      52.669  52.856  66.911  0.00  0.00     0.001 A 
HETATM   15  C   UNK     0      53.035  53.457  65.707  0.00  0.00     0.014 A 
ENDBRANCH   7  10
ENDBRANCH   2   5
BRANCH   3  16
HETATM   16  C   UNK     0      54.283  54.156  58.766  0.00  0.00     0.185 C 
BRANCH  16  17
HETATM   17  S   UNK     0      54.551  52.586  57.911  0.00  0.00    -0.092 SA
BRANCH  17  18
HETATM   18  C   UNK     0      53.807  52.973  56.306  0.00  0.00     0.159 A 
HETATM   19  S   UNK     0      53.915  51.908  55.011  0.00  0.00    -0.045 SA
HETATM   20  C   UNK     0      53.016  53.091  54.154  0.00  0.00     0.096 A 
HETATM   21  N   UNK     0      52.705  54.160  54.855  0.00  0.00    -0.146 NA
HETATM   22  C   UNK     0      52.652  52.860  52.742  0.00  0.00     0.081 C 
HETATM   23  N   UNK     0      53.184  54.084  56.150  0.00  0.00    -0.135 NA
ENDBRANCH  17  18
ENDBRANCH  16  17
ENDBRANCH   3  16
TORSDOF 5
ENDMDL
MODEL 4
REMARK VINA RESULT:      -7.6      8.322     10.825
REMARK  5 active torsions:
REMARK  status: ('A' for Active; 'I' for Inactive)
REMARK    1  A    between atoms: S_2  and  C_15 
REMARK    2  A    between atoms: S_2  and  C_20 
REMARK    3  A    between atoms: N_5  and  C_12 
REMARK       I    between atoms: N_5  and  C_16 
REMARK    4  A    between atoms: C_10  and  C_11 
REMARK    5  A    between atoms: C_15  and  C_16 
ROOT
HETATM    1  O   UNK     0      69.677  74.007  63.964  0.00  0.00    -0.272 OA
HETATM    2  N   UNK     0      68.911  72.841  65.863  0.00  0.00    -0.155 N 
HETATM    3  C   UNK     0      69.824  73.183  64.862  0.00  0.00     0.245 C 
HETATM    4  H   UNK     0      69.169  72.129  66.542  0.00  0.00     0.187 HD
ENDROOT
BRANCH   2   5
HETATM    5  C   UNK     0      67.645  73.372  66.038  0.00  0.00     0.737 A 
HETATM    6  N   UNK     0      66.567  72.624  65.597  0.00  0.00    -0.052 NA
HETATM    7  C   UNK     0      65.479  73.312  65.860  0.00  0.00     0.145 A 
HETATM    8  S   UNK     0      65.808  74.813  66.622  0.00  0.00     0.052 SA
HETATM    9  N   UNK     0      67.462  74.562  66.611  0.00  0.00    -0.021 NA
BRANCH   7  10
HETATM   10  C   UNK     0      64.121  72.922  65.574  0.00  0.00     0.002 A 
HETATM   11  C   UNK     0      63.085  73.332  66.414  0.00  0.00     0.014 A 
HETATM   12  C   UNK     0      61.771  72.954  66.137  0.00  0.00     0.001 A 
HETATM   13  C   UNK     0      61.493  72.167  65.019  0.00  0.00     0.000 A 
HETATM   14  C   UNK     0      62.529  71.757  64.179  0.00  0.00     0.001 A 
HETATM   15  C   UNK     0      63.843  72.134  64.456  0.00  0.00     0.014 A 
ENDBRANCH   7  10
ENDBRANCH   2   5
BRANCH   3  16
HETATM   16  C   UNK     0      71.106  72.384  64.962  0.00  0.00     0.185 C 
BRANCH  16  17
HETATM   17  S   UNK     0      72.465  73.511  65.348  0.00  0.00    -0.092 SA
BRANCH  17  18
HETATM   18  C   UNK     0      73.646  72.341  66.068  0.00  0.00     0.159 A 
HETATM   19  S   UNK     0      75.264  72.746  66.274  0.00  0.00    -0.045 SA
HETATM   20  C   UNK     0      75.423  71.167  66.924  0.00  0.00     0.096 A 
HETATM   21  N   UNK     0      74.309  70.466  66.946  0.00  0.00    -0.146 NA
HETATM   22  C   UNK     0      76.737  70.697  67.405  0.00  0.00     0.081 C 
HETATM   23  N   UNK     0      73.242  71.178  66.430  0.00  0.00    -0.135 NA
ENDBRANCH  17  18
ENDBRANCH  16  17
ENDBRANCH   3  16
TORSDOF 5
ENDMDL
MODEL 5
REMARK VINA RESULT:      -7.6      2.356      2.552
REMARK  5 active torsions:
REMARK  status: ('A' for Active; 'I' for Inactive)
REMARK    1  A    between atoms: S_2  and  C_15 
REMARK    2  A    between atoms: S_2  and  C_20 
REMARK    3  A    between atoms: N_5  and  C_12 
REMARK       I    between atoms: N_5  and  C_16 
REMARK    4  A    between atoms: C_10  and  C_11 
REMARK    5  A    between atoms: C_15  and  C_16 
ROOT
HETATM    1  O   UNK     0      61.278  77.921  65.588  0.00  0.00    -0.272 OA
HETATM    2  N   UNK     0      62.580  77.933  63.624  0.00  0.00    -0.155 N 
HETATM    3  C   UNK     0      62.104  77.417  64.832  0.00  0.00     0.245 C 
HETATM    4  H   UNK     0      63.275  77.404  63.103  0.00  0.00     0.187 HD
ENDROOT
BRANCH   2   5
HETATM    5  C   UNK     0      62.208  79.130  63.037  0.00  0.00     0.737 A 
HETATM    6  N   UNK     0      60.991  79.172  62.377  0.00  0.00    -0.052 NA
HETATM    7  C   UNK     0      60.845  80.388  61.902  0.00  0.00     0.145 A 
HETATM    8  S   UNK     0      62.171  81.412  62.271  0.00  0.00     0.052 SA
HETATM    9  N   UNK     0      62.988  80.209  63.098  0.00  0.00    -0.021 NA
BRANCH   7  10
HETATM   10  C   UNK     0      59.726  80.890  61.143  0.00  0.00     0.002 A 
HETATM   11  C   UNK     0      59.322  82.217  61.291  0.00  0.00     0.014 A 
HETATM   12  C   UNK     0      58.239  82.701  60.557  0.00  0.00     0.001 A 
HETATM   13  C   UNK     0      57.561  81.859  59.675  0.00  0.00     0.000 A 
HETATM   14  C   UNK     0      57.966  80.532  59.529  0.00  0.00     0.001 A 
HETATM   15  C   UNK     0      59.048  80.047  60.262  0.00  0.00     0.014 A 
ENDBRANCH   7  10
ENDBRANCH   2   5
BRANCH   3  16
HETATM   16  C   UNK     0      62.749  76.093  65.180  0.00  0.00     0.185 C 
BRANCH  16  17
HETATM   17  S   UNK     0      61.882  74.775  64.296  0.00  0.00    -0.092 SA
BRANCH  17  18
HETATM   18  C   UNK     0      63.230  74.158  63.255  0.00  0.00     0.159 A 
HETATM   19  S   UNK     0      64.684  74.990  63.123  0.00  0.00    -0.045 SA
HETATM   20  C   UNK     0      65.144  73.719  62.066  0.00  0.00     0.096 A 
HETATM   21  N   UNK     0      64.225  72.794  61.885  0.00  0.00    -0.146 NA
HETATM   22  C   UNK     0      66.483  73.726  61.445  0.00  0.00     0.081 C 
HETATM   23  N   UNK     0      63.075  73.064  62.603  0.00  0.00    -0.135 NA
ENDBRANCH  17  18
ENDBRANCH  16  17
ENDBRANCH   3  16
TORSDOF 5
ENDMDL
MODEL 6
REMARK VINA RESULT:      -7.5     23.412     25.492
REMARK  5 active torsions:
REMARK  status: ('A' for Active; 'I' for Inactive)
REMARK    1  A    between atoms: S_2  and  C_15 
REMARK    2  A    between atoms: S_2  and  C_20 
REMARK    3  A    between atoms: N_5  and  C_12 
REMARK       I    between atoms: N_5  and  C_16 
REMARK    4  A    between atoms: C_10  and  C_11 
REMARK    5  A    between atoms: C_15  and  C_16 
ROOT
HETATM    1  O   UNK     0      54.981  53.122  60.545  0.00  0.00    -0.272 OA
HETATM    2  N   UNK     0      54.543  55.390  61.010  0.00  0.00    -0.155 N 
HETATM    3  C   UNK     0      54.644  54.252  60.205  0.00  0.00     0.245 C 
HETATM    4  H   UNK     0      54.255  56.269  60.586  0.00  0.00     0.187 HD
ENDROOT
BRANCH   2   5
HETATM    5  C   UNK     0      54.806  55.465  62.366  0.00  0.00     0.737 A 
HETATM    6  N   UNK     0      54.142  54.582  63.201  0.00  0.00    -0.052 NA
HETATM    7  C   UNK     0      54.539  54.829  64.428  0.00  0.00     0.145 A 
HETATM    8  S   UNK     0      55.685  56.103  64.515  0.00  0.00     0.052 SA
HETATM    9  N   UNK     0      55.668  56.353  62.861  0.00  0.00    -0.021 NA
BRANCH   7  10
HETATM   10  C   UNK     0      54.109  54.153  65.627  0.00  0.00     0.002 A 
HETATM   11  C   UNK     0      54.809  54.337  66.821  0.00  0.00     0.014 A 
HETATM   12  C   UNK     0      54.393  53.681  67.980  0.00  0.00     0.001 A 
HETATM   13  C   UNK     0      53.278  52.844  67.946  0.00  0.00     0.000 A 
HETATM   14  C   UNK     0      52.579  52.661  66.752  0.00  0.00     0.001 A 
HETATM   15  C   UNK     0      52.994  53.315  65.593  0.00  0.00     0.014 A 
ENDBRANCH   7  10
ENDBRANCH   2   5
BRANCH   3  16
HETATM   16  C   UNK     0      54.300  54.544  58.760  0.00  0.00     0.185 C 
BRANCH  16  17
HETATM   17  S   UNK     0      54.662  53.075  57.769  0.00  0.00    -0.092 SA
BRANCH  17  18
HETATM   18  C   UNK     0      56.284  53.537  57.108  0.00  0.00     0.159 A 
HETATM   19  S   UNK     0      56.629  53.407  55.469  0.00  0.00    -0.045 SA
HETATM   20  C   UNK     0      58.177  54.009  55.899  0.00  0.00     0.096 A 
HETATM   21  N   UNK     0      58.334  54.259  57.182  0.00  0.00    -0.146 NA
HETATM   22  C   UNK     0      59.205  54.210  54.859  0.00  0.00     0.081 C 
HETATM   23  N   UNK     0      57.190  53.972  57.905  0.00  0.00    -0.135 NA
ENDBRANCH  17  18
ENDBRANCH  16  17
ENDBRANCH   3  16
TORSDOF 5
ENDMDL
MODEL 7
REMARK VINA RESULT:      -7.3      7.383     10.841
REMARK  5 active torsions:
REMARK  status: ('A' for Active; 'I' for Inactive)
REMARK    1  A    between atoms: S_2  and  C_15 
REMARK    2  A    between atoms: S_2  and  C_20 
REMARK    3  A    between atoms: N_5  and  C_12 
REMARK       I    between atoms: N_5  and  C_16 
REMARK    4  A    between atoms: C_10  and  C_11 
REMARK    5  A    between atoms: C_15  and  C_16 
ROOT
HETATM    1  O   UNK     0      67.996  72.788  66.939  0.00  0.00    -0.272 OA
HETATM    2  N   UNK     0      68.077  74.187  65.044  0.00  0.00    -0.155 N 
HETATM    3  C   UNK     0      67.458  73.413  66.029  0.00  0.00     0.245 C 
HETATM    4  H   UNK     0      67.500  74.646  64.344  0.00  0.00     0.187 HD
ENDROOT
BRANCH   2   5
HETATM    5  C   UNK     0      69.436  74.402  64.900  0.00  0.00     0.737 A 
HETATM    6  N   UNK     0      70.097  75.058  65.926  0.00  0.00    -0.052 NA
HETATM    7  C   UNK     0      71.360  75.152  65.580  0.00  0.00     0.145 A 
HETATM    8  S   UNK     0      71.688  74.451  64.049  0.00  0.00     0.052 SA
HETATM    9  N   UNK     0      70.095  73.996  63.815  0.00  0.00    -0.021 NA
BRANCH   7  10
HETATM   10  C   UNK     0      72.421  75.763  66.343  0.00  0.00     0.002 A 
HETATM   11  C   UNK     0      73.731  75.302  66.210  0.00  0.00     0.014 A 
HETATM   12  C   UNK     0      74.756  75.891  66.950  0.00  0.00     0.001 A 
HETATM   13  C   UNK     0      74.471  76.943  67.822  0.00  0.00     0.000 A 
HETATM   14  C   UNK     0      73.161  77.404  67.954  0.00  0.00     0.001 A 
HETATM   15  C   UNK     0      72.136  76.814  67.215  0.00  0.00     0.014 A 
ENDBRANCH   7  10
ENDBRANCH   2   5
BRANCH   3  16
HETATM   16  C   UNK     0      65.953  73.383  65.868  0.00  0.00     0.185 C 
BRANCH  16  17
HETATM   17  S   UNK     0      65.190  73.561  67.498  0.00  0.00    -0.092 SA
BRANCH  17  18
HETATM   18  C   UNK     0      63.444  73.617  67.021  0.00  0.00     0.159 A 
HETATM   19  S   UNK     0      62.956  74.303  65.567  0.00  0.00    -0.045 SA
HETATM   20  C   UNK     0      61.372  73.880  66.070  0.00  0.00     0.096 A 
HETATM   21  N   UNK     0      61.307  73.280  67.239  0.00  0.00    -0.146 NA
HETATM   22  C   UNK     0      60.216  74.192  65.206  0.00  0.00     0.081 C 
HETATM   23  N   UNK     0      62.558  73.124  67.808  0.00  0.00    -0.135 NA
ENDBRANCH  17  18
ENDBRANCH  16  17
ENDBRANCH   3  16
TORSDOF 5
ENDMDL
MODEL 8
REMARK VINA RESULT:      -7.3      8.057      9.924
REMARK  5 active torsions:
REMARK  status: ('A' for Active; 'I' for Inactive)
REMARK    1  A    between atoms: S_2  and  C_15 
REMARK    2  A    between atoms: S_2  and  C_20 
REMARK    3  A    between atoms: N_5  and  C_12 
REMARK       I    between atoms: N_5  and  C_16 
REMARK    4  A    between atoms: C_10  and  C_11 
REMARK    5  A    between atoms: C_15  and  C_16 
ROOT
HETATM    1  O   UNK     0      70.231  73.459  67.234  0.00  0.00    -0.272 OA
HETATM    2  N   UNK     0      69.131  74.829  65.664  0.00  0.00    -0.155 N 
HETATM    3  C   UNK     0      70.235  74.273  66.315  0.00  0.00     0.245 C 
HETATM    4  H   UNK     0      69.287  75.503  64.918  0.00  0.00     0.187 HD
ENDROOT
BRANCH   2   5
HETATM    5  C   UNK     0      67.799  74.566  65.932  0.00  0.00     0.737 A 
HETATM    6  N   UNK     0      66.849  75.377  65.334  0.00  0.00    -0.052 NA
HETATM    7  C   UNK     0      65.670  74.953  65.725  0.00  0.00     0.145 A 
HETATM    8  S   UNK     0      65.762  73.607  66.785  0.00  0.00     0.052 SA
HETATM    9  N   UNK     0      67.434  73.569  66.738  0.00  0.00    -0.021 NA
BRANCH   7  10
HETATM   10  C   UNK     0      64.388  75.500  65.352  0.00  0.00     0.002 A 
HETATM   11  C   UNK     0      64.322  76.683  64.616  0.00  0.00     0.014 A 
HETATM   12  C   UNK     0      63.082  77.212  64.257  0.00  0.00     0.001 A 
HETATM   13  C   UNK     0      61.909  76.558  64.634  0.00  0.00     0.000 A 
HETATM   14  C   UNK     0      61.976  75.375  65.370  0.00  0.00     0.001 A 
HETATM   15  C   UNK     0      63.215  74.846  65.730  0.00  0.00     0.014 A 
ENDBRANCH   7  10
ENDBRANCH   2   5
BRANCH   3  16
HETATM   16  C   UNK     0      71.544  74.808  65.775  0.00  0.00     0.185 C 
BRANCH  16  17
HETATM   17  S   UNK     0      72.132  73.697  64.474  0.00  0.00    -0.092 SA
BRANCH  17  18
HETATM   18  C   UNK     0      73.236  72.638  65.444  0.00  0.00     0.159 A 
HETATM   19  S   UNK     0      74.870  72.996  65.610  0.00  0.00    -0.045 SA
HETATM   20  C   UNK     0      74.933  71.572  66.564  0.00  0.00     0.096 A 
HETATM   21  N   UNK     0      73.783  70.945  66.695  0.00  0.00    -0.146 NA
HETATM   22  C   UNK     0      76.211  71.143  67.164  0.00  0.00     0.081 C 
HETATM   23  N   UNK     0      72.765  71.592  66.018  0.00  0.00    -0.135 NA
ENDBRANCH  17  18
ENDBRANCH  16  17
ENDBRANCH   3  16
TORSDOF 5
ENDMDL
MODEL 9
REMARK VINA RESULT:      -7.3      7.812      9.704
REMARK  5 active torsions:
REMARK  status: ('A' for Active; 'I' for Inactive)
REMARK    1  A    between atoms: S_2  and  C_15 
REMARK    2  A    between atoms: S_2  and  C_20 
REMARK    3  A    between atoms: N_5  and  C_12 
REMARK       I    between atoms: N_5  and  C_16 
REMARK    4  A    between atoms: C_10  and  C_11 
REMARK    5  A    between atoms: C_15  and  C_16 
ROOT
HETATM    1  O   UNK     0      69.445  74.202  61.827  0.00  0.00    -0.272 OA
HETATM    2  N   UNK     0      68.477  72.464  63.089  0.00  0.00    -0.155 N 
HETATM    3  C   UNK     0      69.525  73.195  62.525  0.00  0.00     0.245 C 
HETATM    4  H   UNK     0      68.695  71.639  63.643  0.00  0.00     0.187 HD
ENDROOT
BRANCH   2   5
HETATM    5  C   UNK     0      67.125  72.737  62.971  0.00  0.00     0.737 A 
HETATM    6  N   UNK     0      66.305  72.405  64.036  0.00  0.00    -0.052 NA
HETATM    7  C   UNK     0      65.081  72.747  63.709  0.00  0.00     0.145 A 
HETATM    8  S   UNK     0      64.978  73.447  62.146  0.00  0.00     0.052 SA
HETATM    9  N   UNK     0      66.622  73.298  61.871  0.00  0.00    -0.021 NA
BRANCH   7  10
HETATM   10  C   UNK     0      63.895  72.588  64.514  0.00  0.00     0.002 A 
HETATM   11  C   UNK     0      62.782  71.926  63.995  0.00  0.00     0.014 A 
HETATM   12  C   UNK     0      61.635  71.773  64.774  0.00  0.00     0.001 A 
HETATM   13  C   UNK     0      61.602  72.281  66.074  0.00  0.00     0.000 A 
HETATM   14  C   UNK     0      62.715  72.942  66.592  0.00  0.00     0.001 A 
HETATM   15  C   UNK     0      63.861  73.096  65.813  0.00  0.00     0.014 A 
ENDBRANCH   7  10
ENDBRANCH   2   5
BRANCH   3  16
HETATM   16  C   UNK     0      70.877  72.594  62.844  0.00  0.00     0.185 C 
BRANCH  16  17
HETATM   17  S   UNK     0      70.820  71.888  64.508  0.00  0.00    -0.092 SA
BRANCH  17  18
HETATM   18  C   UNK     0      70.691  73.406  65.487  0.00  0.00     0.159 A 
HETATM   19  S   UNK     0      72.057  74.270  65.946  0.00  0.00    -0.045 SA
HETATM   20  C   UNK     0      70.947  75.336  66.703  0.00  0.00     0.096 A 
HETATM   21  N   UNK     0      69.682  74.997  66.573  0.00  0.00    -0.146 NA
HETATM   22  C   UNK     0      71.442  76.524  67.425  0.00  0.00     0.081 C 
HETATM   23  N   UNK     0      69.534  73.833  65.840  0.00  0.00    -0.135 NA
ENDBRANCH  17  18
ENDBRANCH  16  17
ENDBRANCH   3  16
TORSDOF 5
ENDMDL
