MODEL 1
REMARK VINA RESULT:      -8.7      0.000      0.000
REMARK  3 active torsions:
REMARK  status: ('A' for Active; 'I' for Inactive)
REMARK    1  A    between atoms: S_1  and  C_16 
REMARK    2  A    between atoms: S_1  and  C_21 
REMARK       I    between atoms: N_3  and  C_11 
REMARK    3  A    between atoms: C_11  and  C_16 
ROOT
HETATM    1  O   UNK     0      75.190  71.733  63.752  0.00  0.00    -0.272 OA
HETATM    2  N   UNK     0      75.894  72.174  65.882  0.00  0.00    -0.280 N 
HETATM    3  C   UNK     0      76.492  70.933  66.166  0.00  0.00     0.053 A 
HETATM    4  C   UNK     0      76.302  73.090  66.869  0.00  0.00     0.053 A 
HETATM    5  C   UNK     0      77.228  71.060  67.345  0.00  0.00     0.004 A 
HETATM    6  C   UNK     0      77.105  72.403  67.787  0.00  0.00     0.004 A 
HETATM    7  C   UNK     0      75.037  72.393  64.774  0.00  0.00     0.238 C 
HETATM    8  C   UNK     0      76.426  69.687  65.504  0.00  0.00     0.031 A 
HETATM    9  C   UNK     0      76.077  74.472  67.046  0.00  0.00     0.031 A 
HETATM   10  C   UNK     0      77.919  69.939  67.862  0.00  0.00     0.014 A 
HETATM   11  C   UNK     0      77.643  73.086  68.904  0.00  0.00     0.014 A 
HETATM   12  C   UNK     0      77.117  68.592  66.032  0.00  0.00     0.002 A 
HETATM   13  C   UNK     0      76.620  75.129  68.156  0.00  0.00     0.002 A 
HETATM   14  C   UNK     0      77.858  68.714  67.198  0.00  0.00     0.001 A 
HETATM   15  C   UNK     0      77.390  74.445  69.080  0.00  0.00     0.001 A 
ENDROOT
BRANCH   7  16
HETATM   16  C   UNK     0      73.963  73.422  64.898  0.00  0.00     0.186 C 
BRANCH  16  17
HETATM   17  S   UNK     0      72.756  72.833  66.101  0.00  0.00    -0.081 SA
BRANCH  17  18
HETATM   18  C   UNK     0      71.357  72.436  65.053  0.00  0.00     0.191 A 
HETATM   19  N   UNK     0      70.664  73.391  64.449  0.00  0.00    -0.322 N 
HETATM   20  C   UNK     0      70.815  74.826  64.463  0.00  0.00     0.159 C 
HETATM   21  C   UNK     0      69.712  72.698  63.766  0.00  0.00     0.235 A 
HETATM   22  N   UNK     0      69.864  71.410  63.976  0.00  0.00    -0.143 NA
HETATM   23  N   UNK     0      70.946  71.252  64.821  0.00  0.00    -0.123 NA
ENDBRANCH  17  18
ENDBRANCH  16  17
ENDBRANCH   7  16
TORSDOF 3
ENDMDL
MODEL 2
REMARK VINA RESULT:      -8.2      6.174      9.499
REMARK  3 active torsions:
REMARK  status: ('A' for Active; 'I' for Inactive)
REMARK    1  A    between atoms: S_1  and  C_16 
REMARK    2  A    between atoms: S_1  and  C_21 
REMARK       I    between atoms: N_3  and  C_11 
REMARK    3  A    between atoms: C_11  and  C_16 
ROOT
HETATM    1  O   UNK     0      67.620  72.726  67.054  0.00  0.00    -0.272 OA
HETATM    2  N   UNK     0      67.504  73.500  64.905  0.00  0.00    -0.280 N 
HETATM    3  C   UNK     0      68.783  73.104  64.472  0.00  0.00     0.053 A 
HETATM    4  C   UNK     0      66.749  73.849  63.772  0.00  0.00     0.053 A 
HETATM    5  C   UNK     0      68.841  73.250  63.084  0.00  0.00     0.004 A 
HETATM    6  C   UNK     0      67.574  73.719  62.648  0.00  0.00     0.004 A 
HETATM    7  C   UNK     0      67.114  73.519  66.268  0.00  0.00     0.238 C 
HETATM    8  C   UNK     0      69.918  72.658  65.183  0.00  0.00     0.031 A 
HETATM    9  C   UNK     0      65.404  74.241  63.599  0.00  0.00     0.031 A 
HETATM   10  C   UNK     0      70.035  72.932  62.397  0.00  0.00     0.014 A 
HETATM   11  C   UNK     0      67.069  74.027  61.362  0.00  0.00     0.014 A 
HETATM   12  C   UNK     0      71.089  72.347  64.484  0.00  0.00     0.002 A 
HETATM   13  C   UNK     0      64.924  74.538  62.318  0.00  0.00     0.002 A 
HETATM   14  C   UNK     0      71.149  72.481  63.105  0.00  0.00     0.001 A 
HETATM   15  C   UNK     0      65.746  74.439  61.210  0.00  0.00     0.001 A 
ENDROOT
BRANCH   7  16
HETATM   16  C   UNK     0      66.097  74.522  66.702  0.00  0.00     0.186 C 
BRANCH  16  17
HETATM   17  S   UNK     0      64.860  73.672  67.702  0.00  0.00    -0.081 SA
BRANCH  17  18
HETATM   18  C   UNK     0      63.448  73.647  66.597  0.00  0.00     0.191 A 
HETATM   19  N   UNK     0      62.690  74.722  66.435  0.00  0.00    -0.322 N 
HETATM   20  C   UNK     0      62.772  76.037  67.022  0.00  0.00     0.159 C 
HETATM   21  C   UNK     0      61.752  74.307  65.540  0.00  0.00     0.235 A 
HETATM   22  N   UNK     0      61.973  73.053  65.214  0.00  0.00    -0.143 NA
HETATM   23  N   UNK     0      63.088  72.634  65.914  0.00  0.00    -0.123 NA
ENDBRANCH  17  18
ENDBRANCH  16  17
ENDBRANCH   7  16
TORSDOF 3
ENDMDL
MODEL 3
REMARK VINA RESULT:      -8.1      5.971     10.651
REMARK  3 active torsions:
REMARK  status: ('A' for Active; 'I' for Inactive)
REMARK    1  A    between atoms: S_1  and  C_16 
REMARK    2  A    between atoms: S_1  and  C_21 
REMARK       I    between atoms: N_3  and  C_11 
REMARK    3  A    between atoms: C_11  and  C_16 
ROOT
HETATM    1  O   UNK     0      66.520  74.279  67.220  0.00  0.00    -0.272 OA
HETATM    2  N   UNK     0      65.912  74.014  65.032  0.00  0.00    -0.280 N 
HETATM    3  C   UNK     0      64.558  74.381  65.145  0.00  0.00     0.053 A 
HETATM    4  C   UNK     0      66.244  73.995  63.666  0.00  0.00     0.053 A 
HETATM    5  C   UNK     0      64.038  74.542  63.860  0.00  0.00     0.004 A 
HETATM    6  C   UNK     0      65.087  74.296  62.937  0.00  0.00     0.004 A 
HETATM    7  C   UNK     0      66.739  73.729  66.147  0.00  0.00     0.238 C 
HETATM    8  C   UNK     0      63.725  74.556  66.272  0.00  0.00     0.031 A 
HETATM    9  C   UNK     0      67.456  73.772  62.977  0.00  0.00     0.031 A 
HETATM   10  C   UNK     0      62.679  74.896  63.696  0.00  0.00     0.014 A 
HETATM   11  C   UNK     0      65.132  74.327  61.523  0.00  0.00     0.014 A 
HETATM   12  C   UNK     0      62.384  74.907  66.087  0.00  0.00     0.002 A 
HETATM   13  C   UNK     0      67.479  73.810  61.578  0.00  0.00     0.002 A 
HETATM   14  C   UNK     0      61.864  75.078  64.813  0.00  0.00     0.001 A 
HETATM   15  C   UNK     0      66.330  74.079  60.855  0.00  0.00     0.001 A 
ENDROOT
BRANCH   7  16
HETATM   16  C   UNK     0      67.852  72.749  65.974  0.00  0.00     0.186 C 
BRANCH  16  17
HETATM   17  S   UNK     0      69.406  73.664  65.946  0.00  0.00    -0.081 SA
BRANCH  17  18
HETATM   18  C   UNK     0      70.321  72.795  64.673  0.00  0.00     0.191 A 
HETATM   19  N   UNK     0      70.964  73.457  63.722  0.00  0.00    -0.322 N 
HETATM   20  C   UNK     0      71.091  74.872  63.471  0.00  0.00     0.159 C 
HETATM   21  C   UNK     0      71.519  72.463  62.974  0.00  0.00     0.235 A 
HETATM   22  N   UNK     0      71.202  71.294  63.484  0.00  0.00    -0.143 NA
HETATM   23  N   UNK     0      70.418  71.526  64.597  0.00  0.00    -0.123 NA
ENDBRANCH  17  18
ENDBRANCH  16  17
ENDBRANCH   7  16
TORSDOF 3
ENDMDL
MODEL 4
REMARK VINA RESULT:      -8.0     25.839     28.397
REMARK  3 active torsions:
REMARK  status: ('A' for Active; 'I' for Inactive)
REMARK    1  A    between atoms: S_1  and  C_16 
REMARK    2  A    between atoms: S_1  and  C_21 
REMARK       I    between atoms: N_3  and  C_11 
REMARK    3  A    between atoms: C_11  and  C_16 
ROOT
HETATM    1  O   UNK     0      59.506  59.781  47.083  0.00  0.00    -0.272 OA
HETATM    2  N   UNK     0      59.916  57.542  47.299  0.00  0.00    -0.280 N 
HETATM    3  C   UNK     0      59.863  57.455  48.703  0.00  0.00     0.053 A 
HETATM    4  C   UNK     0      59.870  56.237  46.780  0.00  0.00     0.053 A 
HETATM    5  C   UNK     0      59.833  56.105  49.057  0.00  0.00     0.004 A 
HETATM    6  C   UNK     0      59.843  55.344  47.859  0.00  0.00     0.004 A 
HETATM    7  C   UNK     0      60.000  58.771  46.597  0.00  0.00     0.238 C 
HETATM    8  C   UNK     0      59.873  58.449  49.705  0.00  0.00     0.031 A 
HETATM    9  C   UNK     0      59.819  55.729  45.463  0.00  0.00     0.031 A 
HETATM   10  C   UNK     0      59.795  55.742  50.424  0.00  0.00     0.014 A 
HETATM   11  C   UNK     0      59.812  53.950  47.621  0.00  0.00     0.014 A 
HETATM   12  C   UNK     0      59.833  58.068  51.051  0.00  0.00     0.002 A 
HETATM   13  C   UNK     0      59.786  54.346  45.250  0.00  0.00     0.002 A 
HETATM   14  C   UNK     0      59.793  56.729  51.409  0.00  0.00     0.001 A 
HETATM   15  C   UNK     0      59.788  53.463  46.316  0.00  0.00     0.001 A 
ENDROOT
BRANCH   7  16
HETATM   16  C   UNK     0      60.705  58.790  45.281  0.00  0.00     0.186 C 
BRANCH  16  17
HETATM   17  S   UNK     0      61.950  60.094  45.329  0.00  0.00    -0.081 SA
BRANCH  17  18
HETATM   18  C   UNK     0      63.396  59.245  44.696  0.00  0.00     0.191 A 
HETATM   19  N   UNK     0      64.617  59.637  45.029  0.00  0.00    -0.322 N 
HETATM   20  C   UNK     0      65.070  60.713  45.878  0.00  0.00     0.159 C 
HETATM   21  C   UNK     0      65.416  58.760  44.362  0.00  0.00     0.235 A 
HETATM   22  N   UNK     0      64.676  57.913  43.684  0.00  0.00    -0.143 NA
HETATM   23  N   UNK     0      63.354  58.242  43.912  0.00  0.00    -0.123 NA
ENDBRANCH  17  18
ENDBRANCH  16  17
ENDBRANCH   7  16
TORSDOF 3
ENDMDL
MODEL 5
REMARK VINA RESULT:      -7.8     26.951     28.400
REMARK  3 active torsions:
REMARK  status: ('A' for Active; 'I' for Inactive)
REMARK    1  A    between atoms: S_1  and  C_16 
REMARK    2  A    between atoms: S_1  and  C_21 
REMARK       I    between atoms: N_3  and  C_11 
REMARK    3  A    between atoms: C_11  and  C_16 
ROOT
HETATM    1  O   UNK     0      54.702  55.027  64.918  0.00  0.00    -0.272 OA
HETATM    2  N   UNK     0      54.894  52.971  63.936  0.00  0.00    -0.280 N 
HETATM    3  C   UNK     0      54.851  53.377  62.590  0.00  0.00     0.053 A 
HETATM    4  C   UNK     0      55.334  51.636  63.974  0.00  0.00     0.053 A 
HETATM    5  C   UNK     0      55.214  52.291  61.792  0.00  0.00     0.004 A 
HETATM    6  C   UNK     0      55.510  51.203  62.654  0.00  0.00     0.004 A 
HETATM    7  C   UNK     0      54.541  53.816  65.018  0.00  0.00     0.238 C 
HETATM    8  C   UNK     0      54.489  54.604  61.992  0.00  0.00     0.031 A 
HETATM    9  C   UNK     0      55.630  50.753  65.035  0.00  0.00     0.031 A 
HETATM   10  C   UNK     0      55.234  52.433  60.385  0.00  0.00     0.014 A 
HETATM   11  C   UNK     0      55.936  49.879  62.396  0.00  0.00     0.014 A 
HETATM   12  C   UNK     0      54.517  54.724  60.598  0.00  0.00     0.002 A 
HETATM   13  C   UNK     0      56.053  49.448  64.758  0.00  0.00     0.002 A 
HETATM   14  C   UNK     0      54.886  53.651  59.801  0.00  0.00     0.001 A 
HETATM   15  C   UNK     0      56.199  49.010  63.454  0.00  0.00     0.001 A 
ENDROOT
BRANCH   7  16
HETATM   16  C   UNK     0      53.970  53.194  66.249  0.00  0.00     0.186 C 
BRANCH  16  17
HETATM   17  S   UNK     0      54.797  53.918  67.680  0.00  0.00    -0.081 SA
BRANCH  17  18
HETATM   18  C   UNK     0      56.172  52.793  67.918  0.00  0.00     0.191 A 
HETATM   19  N   UNK     0      56.026  51.677  68.619  0.00  0.00    -0.322 N 
HETATM   20  C   UNK     0      54.879  51.126  69.298  0.00  0.00     0.159 C 
HETATM   21  C   UNK     0      57.265  51.115  68.566  0.00  0.00     0.235 A 
HETATM   22  N   UNK     0      58.071  51.882  67.866  0.00  0.00    -0.143 NA
HETATM   23  N   UNK     0      57.341  52.977  67.448  0.00  0.00    -0.123 NA
ENDBRANCH  17  18
ENDBRANCH  16  17
ENDBRANCH   7  16
TORSDOF 3
ENDMDL
MODEL 6
REMARK VINA RESULT:      -7.8      6.117     11.413
REMARK  3 active torsions:
REMARK  status: ('A' for Active; 'I' for Inactive)
REMARK    1  A    between atoms: S_1  and  C_16 
REMARK    2  A    between atoms: S_1  and  C_21 
REMARK       I    between atoms: N_3  and  C_11 
REMARK    3  A    between atoms: C_11  and  C_16 
ROOT
HETATM    1  O   UNK     0      66.017  71.940  63.452  0.00  0.00    -0.272 OA
HETATM    2  N   UNK     0      64.555  73.544  64.171  0.00  0.00    -0.280 N 
HETATM    3  C   UNK     0      63.403  72.743  64.279  0.00  0.00     0.053 A 
HETATM    4  C   UNK     0      64.304  74.759  64.832  0.00  0.00     0.053 A 
HETATM    5  C   UNK     0      62.425  73.471  64.959  0.00  0.00     0.004 A 
HETATM    6  C   UNK     0      62.984  74.730  65.299  0.00  0.00     0.004 A 
HETATM    7  C   UNK     0      65.732  73.131  63.497  0.00  0.00     0.238 C 
HETATM    8  C   UNK     0      63.117  71.444  63.807  0.00  0.00     0.031 A 
HETATM    9  C   UNK     0      65.107  75.888  65.102  0.00  0.00     0.031 A 
HETATM   10  C   UNK     0      61.155  72.892  65.186  0.00  0.00     0.014 A 
HETATM   11  C   UNK     0      62.456  75.844  65.993  0.00  0.00     0.014 A 
HETATM   12  C   UNK     0      61.854  70.890  64.043  0.00  0.00     0.002 A 
HETATM   13  C   UNK     0      64.566  76.979  65.792  0.00  0.00     0.002 A 
HETATM   14  C   UNK     0      60.882  71.604  64.727  0.00  0.00     0.001 A 
HETATM   15  C   UNK     0      63.254  76.963  66.230  0.00  0.00     0.001 A 
ENDROOT
BRANCH   7  16
HETATM   16  C   UNK     0      66.584  74.173  62.852  0.00  0.00     0.186 C 
BRANCH  16  17
HETATM   17  S   UNK     0      68.270  73.540  62.756  0.00  0.00    -0.081 SA
BRANCH  17  18
HETATM   18  C   UNK     0      68.884  73.879  64.406  0.00  0.00     0.191 A 
HETATM   19  N   UNK     0      69.791  73.095  64.970  0.00  0.00    -0.322 N 
HETATM   20  C   UNK     0      70.452  71.907  64.485  0.00  0.00     0.159 C 
HETATM   21  C   UNK     0      69.988  73.675  66.186  0.00  0.00     0.235 A 
HETATM   22  N   UNK     0      69.225  74.739  66.299  0.00  0.00    -0.143 NA
HETATM   23  N   UNK     0      68.507  74.861  65.125  0.00  0.00    -0.123 NA
ENDBRANCH  17  18
ENDBRANCH  16  17
ENDBRANCH   7  16
TORSDOF 3
ENDMDL
MODEL 7
REMARK VINA RESULT:      -7.7     27.137     28.692
REMARK  3 active torsions:
REMARK  status: ('A' for Active; 'I' for Inactive)
REMARK    1  A    between atoms: S_1  and  C_16 
REMARK    2  A    between atoms: S_1  and  C_21 
REMARK       I    between atoms: N_3  and  C_11 
REMARK    3  A    between atoms: C_11  and  C_16 
ROOT
HETATM    1  O   UNK     0      52.829  51.256  67.856  0.00  0.00    -0.272 OA
HETATM    2  N   UNK     0      54.001  52.046  66.059  0.00  0.00    -0.280 N 
HETATM    3  C   UNK     0      54.613  50.843  65.664  0.00  0.00     0.053 A 
HETATM    4  C   UNK     0      54.158  52.977  65.017  0.00  0.00     0.053 A 
HETATM    5  C   UNK     0      55.189  51.036  64.407  0.00  0.00     0.004 A 
HETATM    6  C   UNK     0      54.910  52.368  64.005  0.00  0.00     0.004 A 
HETATM    7  C   UNK     0      53.354  52.218  67.309  0.00  0.00     0.238 C 
HETATM    8  C   UNK     0      54.744  49.598  66.318  0.00  0.00     0.031 A 
HETATM    9  C   UNK     0      53.692  54.297  64.832  0.00  0.00     0.031 A 
HETATM   10  C   UNK     0      55.888  49.973  63.788  0.00  0.00     0.014 A 
HETATM   11  C   UNK     0      55.235  53.092  62.834  0.00  0.00     0.014 A 
HETATM   12  C   UNK     0      55.439  48.560  65.687  0.00  0.00     0.002 A 
HETATM   13  C   UNK     0      54.023  54.995  63.665  0.00  0.00     0.002 A 
HETATM   14  C   UNK     0      56.004  48.743  64.434  0.00  0.00     0.001 A 
HETATM   15  C   UNK     0      54.791  54.404  62.677  0.00  0.00     0.001 A 
ENDROOT
BRANCH   7  16
HETATM   16  C   UNK     0      53.345  53.580  67.922  0.00  0.00     0.186 C 
BRANCH  16  17
HETATM   17  S   UNK     0      54.502  53.580  69.306  0.00  0.00    -0.081 SA
BRANCH  17  18
HETATM   18  C   UNK     0      55.967  52.864  68.561  0.00  0.00     0.191 A 
HETATM   19  N   UNK     0      56.341  51.625  68.846  0.00  0.00    -0.322 N 
HETATM   20  C   UNK     0      55.759  50.636  69.721  0.00  0.00     0.159 C 
HETATM   21  C   UNK     0      57.466  51.462  68.097  0.00  0.00     0.235 A 
HETATM   22  N   UNK     0      57.712  52.561  67.420  0.00  0.00    -0.143 NA
HETATM   23  N   UNK     0      56.722  53.471  67.733  0.00  0.00    -0.123 NA
ENDBRANCH  17  18
ENDBRANCH  16  17
ENDBRANCH   7  16
TORSDOF 3
ENDMDL
MODEL 8
REMARK VINA RESULT:      -7.6     25.876     28.163
REMARK  3 active torsions:
REMARK  status: ('A' for Active; 'I' for Inactive)
REMARK    1  A    between atoms: S_1  and  C_16 
REMARK    2  A    between atoms: S_1  and  C_21 
REMARK       I    between atoms: N_3  and  C_11 
REMARK    3  A    between atoms: C_11  and  C_16 
ROOT
HETATM    1  O   UNK     0      57.168  54.029  67.460  0.00  0.00    -0.272 OA
HETATM    2  N   UNK     0      56.166  52.990  65.687  0.00  0.00    -0.280 N 
HETATM    3  C   UNK     0      55.779  54.134  64.966  0.00  0.00     0.053 A 
HETATM    4  C   UNK     0      56.035  51.876  64.839  0.00  0.00     0.053 A 
HETATM    5  C   UNK     0      55.364  53.732  63.695  0.00  0.00     0.004 A 
HETATM    6  C   UNK     0      55.518  52.323  63.617  0.00  0.00     0.004 A 
HETATM    7  C   UNK     0      56.603  53.028  67.035  0.00  0.00     0.238 C 
HETATM    8  C   UNK     0      55.722  55.497  65.330  0.00  0.00     0.031 A 
HETATM    9  C   UNK     0      56.344  50.507  64.999  0.00  0.00     0.031 A 
HETATM   10  C   UNK     0      54.905  54.700  62.772  0.00  0.00     0.014 A 
HETATM   11  C   UNK     0      55.268  51.399  62.576  0.00  0.00     0.014 A 
HETATM   12  C   UNK     0      55.266  56.438  64.401  0.00  0.00     0.002 A 
HETATM   13  C   UNK     0      56.091  49.610  63.955  0.00  0.00     0.002 A 
HETATM   14  C   UNK     0      54.862  56.046  63.133  0.00  0.00     0.001 A 
HETATM   15  C   UNK     0      55.553  50.046  62.757  0.00  0.00     0.001 A 
ENDROOT
BRANCH   7  16
HETATM   16  C   UNK     0      56.347  51.838  67.900  0.00  0.00     0.186 C 
BRANCH  16  17
HETATM   17  S   UNK     0      55.079  52.280  69.104  0.00  0.00    -0.081 SA
BRANCH  17  18
HETATM   18  C   UNK     0      53.706  52.730  68.043  0.00  0.00     0.191 A 
HETATM   19  N   UNK     0      52.958  51.801  67.465  0.00  0.00    -0.322 N 
HETATM   20  C   UNK     0      53.027  50.361  67.516  0.00  0.00     0.159 C 
HETATM   21  C   UNK     0      52.047  52.530  66.764  0.00  0.00     0.235 A 
HETATM   22  N   UNK     0      52.273  53.812  66.940  0.00  0.00    -0.143 NA
HETATM   23  N   UNK     0      53.363  53.929  67.781  0.00  0.00    -0.123 NA
ENDBRANCH  17  18
ENDBRANCH  16  17
ENDBRANCH   7  16
TORSDOF 3
ENDMDL
MODEL 9
REMARK VINA RESULT:      -7.3     25.857     28.629
REMARK  3 active torsions:
REMARK  status: ('A' for Active; 'I' for Inactive)
REMARK    1  A    between atoms: S_1  and  C_16 
REMARK    2  A    between atoms: S_1  and  C_21 
REMARK       I    between atoms: N_3  and  C_11 
REMARK    3  A    between atoms: C_11  and  C_16 
ROOT
HETATM    1  O   UNK     0      56.095  49.694  64.923  0.00  0.00    -0.272 OA
HETATM    2  N   UNK     0      55.127  50.892  66.612  0.00  0.00    -0.280 N 
HETATM    3  C   UNK     0      54.255  49.901  67.098  0.00  0.00     0.053 A 
HETATM    4  C   UNK     0      55.183  51.927  67.563  0.00  0.00     0.053 A 
HETATM    5  C   UNK     0      53.733  50.335  68.318  0.00  0.00     0.004 A 
HETATM    6  C   UNK     0      54.307  51.601  68.606  0.00  0.00     0.004 A 
HETATM    7  C   UNK     0      55.801  50.797  65.369  0.00  0.00     0.238 C 
HETATM    8  C   UNK     0      53.846  48.664  66.555  0.00  0.00     0.031 A 
HETATM    9  C   UNK     0      55.936  53.118  67.641  0.00  0.00     0.031 A 
HETATM   10  C   UNK     0      52.808  49.521  69.012  0.00  0.00     0.014 A 
HETATM   11  C   UNK     0      54.151  52.485  69.699  0.00  0.00     0.014 A 
HETATM   12  C   UNK     0      52.930  47.873  67.258  0.00  0.00     0.002 A 
HETATM   13  C   UNK     0      55.769  53.978  68.733  0.00  0.00     0.002 A 
HETATM   14  C   UNK     0      52.416  48.295  68.475  0.00  0.00     0.001 A 
HETATM   15  C   UNK     0      54.883  53.671  69.750  0.00  0.00     0.001 A 
ENDROOT
BRANCH   7  16
HETATM   16  C   UNK     0      56.123  52.057  64.637  0.00  0.00     0.186 C 
BRANCH  16  17
HETATM   17  S   UNK     0      54.580  52.756  64.015  0.00  0.00    -0.081 SA
BRANCH  17  18
HETATM   18  C   UNK     0      54.989  54.497  63.892  0.00  0.00     0.191 A 
HETATM   19  N   UNK     0      54.960  55.123  62.725  0.00  0.00    -0.322 N 
HETATM   20  C   UNK     0      54.638  54.648  61.401  0.00  0.00     0.159 C 
HETATM   21  C   UNK     0      55.321  56.396  63.047  0.00  0.00     0.235 A 
HETATM   22  N   UNK     0      55.543  56.480  64.340  0.00  0.00    -0.143 NA
HETATM   23  N   UNK     0      55.321  55.229  64.881  0.00  0.00    -0.123 NA
ENDBRANCH  17  18
ENDBRANCH  16  17
ENDBRANCH   7  16
TORSDOF 3
ENDMDL
