MODEL 1
REMARK VINA RESULT:      -7.8      0.000      0.000
REMARK  7 active torsions:
REMARK  status: ('A' for Active; 'I' for Inactive)
REMARK    1  A    between atoms: S_2  and  N_10 
REMARK    2  A    between atoms: S_2  and  C_22 
REMARK    3  A    between atoms: O_4  and  C_17 
REMARK    4  A    between atoms: O_5  and  C_21 
REMARK    5  A    between atoms: O_5  and  C_24 
REMARK    6  A    between atoms: N_10  and  C_15 
REMARK    7  A    between atoms: C_13  and  C_21 
ROOT
HETATM    1  N   UNK     0      62.779  72.823  65.375  0.00  0.00    -0.353 N 
HETATM    2  C   UNK     0      64.819  73.295  64.607  0.00  0.00     0.039 A 
HETATM    3  C   UNK     0      63.529  72.921  64.225  0.00  0.00     0.048 A 
HETATM    4  C   UNK     0      64.816  73.418  66.025  0.00  0.00     0.076 A 
HETATM    5  C   UNK     0      63.548  73.121  66.468  0.00  0.00     0.025 A 
HETATM    6  C   UNK     0      65.799  73.468  63.609  0.00  0.00     0.089 A 
HETATM    7  C   UNK     0      63.168  72.709  62.890  0.00  0.00     0.033 A 
HETATM    8  C   UNK     0      65.452  73.260  62.269  0.00  0.00     0.096 A 
HETATM    9  C   UNK     0      61.377  72.459  65.420  0.00  0.00     0.156 C 
HETATM   10  C   UNK     0      62.997  73.095  67.841  0.00  0.00     0.069 C 
HETATM   11  C   UNK     0      64.157  72.887  61.917  0.00  0.00     0.041 A 
ENDROOT
BRANCH   6  12
HETATM   12  N   UNK     0      67.135  73.851  63.950  0.00  0.00    -0.276 N 
HETATM   13  H   UNK     0      67.203  74.716  64.497  0.00  0.00     0.179 HD
BRANCH  12  14
HETATM   14  S   UNK     0      68.431  72.766  64.068  0.00  0.00     0.269 S 
HETATM   15  O   UNK     0      68.891  72.403  62.742  0.00  0.00    -0.200 OA
HETATM   16  O   UNK     0      68.127  71.740  65.048  0.00  0.00    -0.200 OA
BRANCH  14  17
HETATM   17  C   UNK     0      69.657  73.824  64.780  0.00  0.00     0.122 A 
HETATM   18  S   UNK     0      70.733  74.517  63.650  0.00  0.00    -0.064 SA
HETATM   19  C   UNK     0      71.578  75.339  64.892  0.00  0.00     0.075 A 
HETATM   20 Cl   UNK     0      72.917  76.339  64.508  0.00  0.00    -0.076 Cl
HETATM   21  C   UNK     0      71.045  75.084  66.136  0.00  0.00     0.033 A 
HETATM   22  C   UNK     0      69.928  74.203  66.069  0.00  0.00     0.035 A 
ENDBRANCH  14  17
ENDBRANCH  12  14
ENDBRANCH   6  12
BRANCH   8  23
HETATM   23  O   UNK     0      66.380  73.419  61.282  0.00  0.00    -0.354 OA
HETATM   24  C   UNK     0      65.896  73.789  59.994  0.00  0.00     0.210 C 
ENDBRANCH   8  23
BRANCH   4  25
HETATM   25  C   UNK     0      65.906  73.780  66.887  0.00  0.00     0.296 C 
HETATM   26  O   UNK     0      66.811  73.025  67.279  0.00  0.00    -0.259 OA
BRANCH  25  27
HETATM   27  O   UNK     0      65.850  75.107  67.256  0.00  0.00    -0.318 OA
BRANCH  27  28
HETATM   28  C   UNK     0      66.495  76.050  66.392  0.00  0.00     0.174 C 
HETATM   29  C   UNK     0      65.440  76.842  65.652  0.00  0.00     0.034 C 
ENDBRANCH  27  28
ENDBRANCH  25  27
ENDBRANCH   4  25
TORSDOF 7
ENDMDL
MODEL 2
REMARK VINA RESULT:      -6.6     23.351     25.820
REMARK  7 active torsions:
REMARK  status: ('A' for Active; 'I' for Inactive)
REMARK    1  A    between atoms: S_2  and  N_10 
REMARK    2  A    between atoms: S_2  and  C_22 
REMARK    3  A    between atoms: O_4  and  C_17 
REMARK    4  A    between atoms: O_5  and  C_21 
REMARK    5  A    between atoms: O_5  and  C_24 
REMARK    6  A    between atoms: N_10  and  C_15 
REMARK    7  A    between atoms: C_13  and  C_21 
ROOT
HETATM    1  N   UNK     0      55.232  54.824  51.279  0.00  0.00    -0.353 N 
HETATM    2  C   UNK     0      55.314  54.275  53.439  0.00  0.00     0.039 A 
HETATM    3  C   UNK     0      55.947  55.017  52.440  0.00  0.00     0.048 A 
HETATM    4  C   UNK     0      54.197  53.631  52.838  0.00  0.00     0.076 A 
HETATM    5  C   UNK     0      54.173  53.988  51.509  0.00  0.00     0.025 A 
HETATM    6  C   UNK     0      55.849  54.297  54.743  0.00  0.00     0.089 A 
HETATM    7  C   UNK     0      57.092  55.783  52.679  0.00  0.00     0.033 A 
HETATM    8  C   UNK     0      56.995  55.060  54.997  0.00  0.00     0.096 A 
HETATM    9  C   UNK     0      55.555  55.423  49.999  0.00  0.00     0.156 C 
HETATM   10  C   UNK     0      53.232  53.606  50.434  0.00  0.00     0.069 C 
HETATM   11  C   UNK     0      57.605  55.790  53.980  0.00  0.00     0.041 A 
ENDROOT
BRANCH   6  12
HETATM   12  N   UNK     0      55.237  53.553  55.801  0.00  0.00    -0.276 N 
HETATM   13  H   UNK     0      55.732  52.692  56.057  0.00  0.00     0.179 HD
BRANCH  12  14
HETATM   14  S   UNK     0      54.227  54.235  56.978  0.00  0.00     0.269 S 
HETATM   15  O   UNK     0      52.839  53.982  56.642  0.00  0.00    -0.200 OA
HETATM   16  O   UNK     0      54.674  55.579  57.292  0.00  0.00    -0.200 OA
BRANCH  14  17
HETATM   17  C   UNK     0      54.629  53.211  58.364  0.00  0.00     0.122 A 
HETATM   18  S   UNK     0      54.476  53.983  59.879  0.00  0.00    -0.064 SA
HETATM   19  C   UNK     0      54.974  52.566  60.700  0.00  0.00     0.075 A 
HETATM   20 Cl   UNK     0      55.077  52.554  62.412  0.00  0.00    -0.076 Cl
HETATM   21  C   UNK     0      55.248  51.534  59.832  0.00  0.00     0.033 A 
HETATM   22  C   UNK     0      55.046  51.911  58.472  0.00  0.00     0.035 A 
ENDBRANCH  14  17
ENDBRANCH  12  14
ENDBRANCH   6  12
BRANCH   8  23
HETATM   23  O   UNK     0      57.536  55.100  56.249  0.00  0.00    -0.354 OA
HETATM   24  C   UNK     0      58.844  54.559  56.406  0.00  0.00     0.210 C 
ENDBRANCH   8  23
BRANCH   4  25
HETATM   25  C   UNK     0      53.237  52.758  53.454  0.00  0.00     0.296 C 
HETATM   26  O   UNK     0      52.049  53.031  53.696  0.00  0.00    -0.259 OA
BRANCH  25  27
HETATM   27  O   UNK     0      53.784  51.531  53.766  0.00  0.00    -0.318 OA
BRANCH  27  28
HETATM   28  C   UNK     0      52.939  50.385  53.611  0.00  0.00     0.174 C 
HETATM   29  C   UNK     0      53.605  49.407  52.668  0.00  0.00     0.034 C 
ENDBRANCH  27  28
ENDBRANCH  25  27
ENDBRANCH   4  25
TORSDOF 7
ENDMDL
MODEL 3
REMARK VINA RESULT:      -6.5     23.903     26.775
REMARK  7 active torsions:
REMARK  status: ('A' for Active; 'I' for Inactive)
REMARK    1  A    between atoms: S_2  and  N_10 
REMARK    2  A    between atoms: S_2  and  C_22 
REMARK    3  A    between atoms: O_4  and  C_17 
REMARK    4  A    between atoms: O_5  and  C_21 
REMARK    5  A    between atoms: O_5  and  C_24 
REMARK    6  A    between atoms: N_10  and  C_15 
REMARK    7  A    between atoms: C_13  and  C_21 
ROOT
HETATM    1  N   UNK     0      60.701  58.421  47.476  0.00  0.00    -0.353 N 
HETATM    2  C   UNK     0      59.464  56.897  48.534  0.00  0.00     0.039 A 
HETATM    3  C   UNK     0      60.211  58.064  48.711  0.00  0.00     0.048 A 
HETATM    4  C   UNK     0      59.525  56.568  47.151  0.00  0.00     0.076 A 
HETATM    5  C   UNK     0      60.293  57.523  46.526  0.00  0.00     0.025 A 
HETATM    6  C   UNK     0      58.843  56.312  49.655  0.00  0.00     0.089 A 
HETATM    7  C   UNK     0      60.368  58.678  49.958  0.00  0.00     0.033 A 
HETATM    8  C   UNK     0      58.992  56.916  50.910  0.00  0.00     0.096 A 
HETATM    9  C   UNK     0      61.529  59.583  47.218  0.00  0.00     0.156 C 
HETATM   10  C   UNK     0      60.676  57.662  45.104  0.00  0.00     0.069 C 
HETATM   11  C   UNK     0      59.742  58.080  51.057  0.00  0.00     0.041 A 
ENDROOT
BRANCH   6  12
HETATM   12  N   UNK     0      58.068  55.117  49.526  0.00  0.00    -0.276 N 
HETATM   13  H   UNK     0      58.602  54.248  49.639  0.00  0.00     0.179 HD
BRANCH  12  14
HETATM   14  S   UNK     0      56.400  55.032  49.813  0.00  0.00     0.269 S 
HETATM   15  O   UNK     0      55.802  56.341  49.630  0.00  0.00    -0.200 OA
HETATM   16  O   UNK     0      56.146  54.270  51.021  0.00  0.00    -0.200 OA
BRANCH  14  17
HETATM   17  C   UNK     0      55.899  54.028  48.445  0.00  0.00     0.122 A 
HETATM   18  S   UNK     0      54.353  54.402  47.825  0.00  0.00    -0.064 SA
HETATM   19  C   UNK     0      54.482  53.172  46.641  0.00  0.00     0.075 A 
HETATM   20 Cl   UNK     0      53.203  52.906  45.531  0.00  0.00    -0.076 Cl
HETATM   21  C   UNK     0      55.679  52.497  46.725  0.00  0.00     0.033 A 
HETATM   22  C   UNK     0      56.503  52.997  47.775  0.00  0.00     0.035 A 
ENDBRANCH  14  17
ENDBRANCH  12  14
ENDBRANCH   6  12
BRANCH   8  23
HETATM   23  O   UNK     0      58.402  56.372  52.014  0.00  0.00    -0.354 OA
HETATM   24  C   UNK     0      57.526  57.213  52.758  0.00  0.00     0.210 C 
ENDBRANCH   8  23
BRANCH   4  25
HETATM   25  C   UNK     0      58.917  55.455  46.475  0.00  0.00     0.296 C 
HETATM   26  O   UNK     0      57.842  55.476  45.853  0.00  0.00    -0.259 OA
BRANCH  25  27
HETATM   27  O   UNK     0      59.675  54.309  46.588  0.00  0.00    -0.318 OA
BRANCH  27  28
HETATM   28  C   UNK     0      59.886  53.549  45.393  0.00  0.00     0.174 C 
HETATM   29  C   UNK     0      60.302  52.143  45.770  0.00  0.00     0.034 C 
ENDBRANCH  27  28
ENDBRANCH  25  27
ENDBRANCH   4  25
TORSDOF 7
ENDMDL
MODEL 4
REMARK VINA RESULT:      -6.4     23.506     25.752
REMARK  7 active torsions:
REMARK  status: ('A' for Active; 'I' for Inactive)
REMARK    1  A    between atoms: S_2  and  N_10 
REMARK    2  A    between atoms: S_2  and  C_22 
REMARK    3  A    between atoms: O_4  and  C_17 
REMARK    4  A    between atoms: O_5  and  C_21 
REMARK    5  A    between atoms: O_5  and  C_24 
REMARK    6  A    between atoms: N_10  and  C_15 
REMARK    7  A    between atoms: C_13  and  C_21 
ROOT
HETATM    1  N   UNK     0      53.845  53.100  52.081  0.00  0.00    -0.353 N 
HETATM    2  C   UNK     0      55.312  53.121  53.760  0.00  0.00     0.039 A 
HETATM    3  C   UNK     0      55.169  53.323  52.386  0.00  0.00     0.048 A 
HETATM    4  C   UNK     0      54.031  52.770  54.267  0.00  0.00     0.076 A 
HETATM    5  C   UNK     0      53.149  52.764  53.211  0.00  0.00     0.025 A 
HETATM    6  C   UNK     0      56.586  53.288  54.341  0.00  0.00     0.089 A 
HETATM    7  C   UNK     0      56.238  53.684  51.559  0.00  0.00     0.033 A 
HETATM    8  C   UNK     0      57.665  53.650  53.526  0.00  0.00     0.096 A 
HETATM    9  C   UNK     0      53.272  53.207  50.754  0.00  0.00     0.156 C 
HETATM   10  C   UNK     0      51.700  52.469  53.176  0.00  0.00     0.069 C 
HETATM   11  C   UNK     0      57.492  53.844  52.158  0.00  0.00     0.041 A 
ENDROOT
BRANCH   6  12
HETATM   12  N   UNK     0      56.784  53.093  55.744  0.00  0.00    -0.276 N 
HETATM   13  H   UNK     0      57.169  52.175  55.996  0.00  0.00     0.179 HD
BRANCH  12  14
HETATM   14  S   UNK     0      57.019  54.352  56.853  0.00  0.00     0.269 S 
HETATM   15  O   UNK     0      56.428  55.574  56.342  0.00  0.00    -0.200 OA
HETATM   16  O   UNK     0      58.389  54.341  57.329  0.00  0.00    -0.200 OA
BRANCH  14  17
HETATM   17  C   UNK     0      55.997  53.790  58.183  0.00  0.00     0.122 A 
HETATM   18  S   UNK     0      56.424  52.256  58.801  0.00  0.00    -0.064 SA
HETATM   19  C   UNK     0      55.152  52.315  59.946  0.00  0.00     0.075 A 
HETATM   20 Cl   UNK     0      54.913  51.012  61.035  0.00  0.00    -0.076 Cl
HETATM   21  C   UNK     0      54.425  53.480  59.852  0.00  0.00     0.033 A 
HETATM   22  C   UNK     0      54.918  54.337  58.826  0.00  0.00     0.035 A 
ENDBRANCH  14  17
ENDBRANCH  12  14
ENDBRANCH   6  12
BRANCH   8  23
HETATM   23  O   UNK     0      58.909  53.818  54.061  0.00  0.00    -0.354 OA
HETATM   24  C   UNK     0      59.912  54.357  53.205  0.00  0.00     0.210 C 
ENDBRANCH   8  23
BRANCH   4  25
HETATM   25  C   UNK     0      53.665  52.464  55.623  0.00  0.00     0.296 C 
HETATM   26  O   UNK     0      52.794  53.044  56.293  0.00  0.00    -0.259 OA
BRANCH  25  27
HETATM   27  O   UNK     0      54.405  51.419  56.132  0.00  0.00    -0.318 OA
BRANCH  27  28
HETATM   28  C   UNK     0      53.798  50.122  56.113  0.00  0.00     0.174 C 
HETATM   29  C   UNK     0      53.638  49.632  57.535  0.00  0.00     0.034 C 
ENDBRANCH  27  28
ENDBRANCH  25  27
ENDBRANCH   4  25
TORSDOF 7
ENDMDL
MODEL 5
REMARK VINA RESULT:      -6.2     23.611     25.965
REMARK  7 active torsions:
REMARK  status: ('A' for Active; 'I' for Inactive)
REMARK    1  A    between atoms: S_2  and  N_10 
REMARK    2  A    between atoms: S_2  and  C_22 
REMARK    3  A    between atoms: O_4  and  C_17 
REMARK    4  A    between atoms: O_5  and  C_21 
REMARK    5  A    between atoms: O_5  and  C_24 
REMARK    6  A    between atoms: N_10  and  C_15 
REMARK    7  A    between atoms: C_13  and  C_21 
ROOT
HETATM    1  N   UNK     0      53.749  53.719  50.739  0.00  0.00    -0.353 N 
HETATM    2  C   UNK     0      54.350  53.388  52.862  0.00  0.00     0.039 A 
HETATM    3  C   UNK     0      53.462  52.979  51.864  0.00  0.00     0.048 A 
HETATM    4  C   UNK     0      55.176  54.399  52.297  0.00  0.00     0.076 A 
HETATM    5  C   UNK     0      54.782  54.581  50.991  0.00  0.00     0.025 A 
HETATM    6  C   UNK     0      54.271  52.780  54.130  0.00  0.00     0.089 A 
HETATM    7  C   UNK     0      52.497  51.988  52.071  0.00  0.00     0.033 A 
HETATM    8  C   UNK     0      53.310  51.787  54.353  0.00  0.00     0.096 A 
HETATM    9  C   UNK     0      53.056  53.601  49.472  0.00  0.00     0.156 C 
HETATM   10  C   UNK     0      55.301  55.502  49.956  0.00  0.00     0.069 C 
HETATM   11  C   UNK     0      52.438  51.399  53.339  0.00  0.00     0.041 A 
ENDROOT
BRANCH   6  12
HETATM   12  N   UNK     0      55.157  53.165  55.185  0.00  0.00    -0.276 N 
HETATM   13  H   UNK     0      56.154  53.089  54.953  0.00  0.00     0.179 HD
BRANCH  12  14
HETATM   14  S   UNK     0      54.741  54.237  56.430  0.00  0.00     0.269 S 
HETATM   15  O   UNK     0      53.301  54.409  56.470  0.00  0.00    -0.200 OA
HETATM   16  O   UNK     0      55.619  55.391  56.401  0.00  0.00    -0.200 OA
BRANCH  14  17
HETATM   17  C   UNK     0      55.195  53.269  57.839  0.00  0.00     0.122 A 
HETATM   18  S   UNK     0      56.605  52.329  57.626  0.00  0.00    -0.064 SA
HETATM   19  C   UNK     0      56.479  51.700  59.213  0.00  0.00     0.075 A 
HETATM   20 Cl   UNK     0      57.644  50.584  59.792  0.00  0.00    -0.076 Cl
HETATM   21  C   UNK     0      55.384  52.199  59.882  0.00  0.00     0.033 A 
HETATM   22  C   UNK     0      54.639  53.113  59.081  0.00  0.00     0.035 A 
ENDBRANCH  14  17
ENDBRANCH  12  14
ENDBRANCH   6  12
BRANCH   8  23
HETATM   23  O   UNK     0      53.211  51.181  55.572  0.00  0.00    -0.354 OA
HETATM   24  C   UNK     0      53.836  49.909  55.713  0.00  0.00     0.210 C 
ENDBRANCH   8  23
BRANCH   4  25
HETATM   25  C   UNK     0      56.240  55.131  52.926  0.00  0.00     0.296 C 
HETATM   26  O   UNK     0      57.206  54.640  53.535  0.00  0.00    -0.259 OA
BRANCH  25  27
HETATM   27  O   UNK     0      56.081  56.493  52.784  0.00  0.00    -0.318 OA
BRANCH  27  28
HETATM   28  C   UNK     0      57.269  57.292  52.813  0.00  0.00     0.174 C 
HETATM   29  C   UNK     0      57.241  58.259  51.649  0.00  0.00     0.034 C 
ENDBRANCH  27  28
ENDBRANCH  25  27
ENDBRANCH   4  25
TORSDOF 7
ENDMDL
MODEL 6
REMARK VINA RESULT:      -6.2     25.941     28.892
REMARK  7 active torsions:
REMARK  status: ('A' for Active; 'I' for Inactive)
REMARK    1  A    between atoms: S_2  and  N_10 
REMARK    2  A    between atoms: S_2  and  C_22 
REMARK    3  A    between atoms: O_4  and  C_17 
REMARK    4  A    between atoms: O_5  and  C_21 
REMARK    5  A    between atoms: O_5  and  C_24 
REMARK    6  A    between atoms: N_10  and  C_15 
REMARK    7  A    between atoms: C_13  and  C_21 
ROOT
HETATM    1  N   UNK     0      59.407  51.866  84.182  0.00  0.00    -0.353 N 
HETATM    2  C   UNK     0      58.404  53.853  84.043  0.00  0.00     0.039 A 
HETATM    3  C   UNK     0      59.023  52.962  84.922  0.00  0.00     0.048 A 
HETATM    4  C   UNK     0      58.429  53.254  82.753  0.00  0.00     0.076 A 
HETATM    5  C   UNK     0      59.052  52.032  82.870  0.00  0.00     0.025 A 
HETATM    6  C   UNK     0      57.912  55.072  84.550  0.00  0.00     0.089 A 
HETATM    7  C   UNK     0      59.176  53.229  86.286  0.00  0.00     0.033 A 
HETATM    8  C   UNK     0      58.058  55.354  85.913  0.00  0.00     0.096 A 
HETATM    9  C   UNK     0      60.090  50.704  84.717  0.00  0.00     0.156 C 
HETATM   10  C   UNK     0      59.342  51.005  81.846  0.00  0.00     0.069 C 
HETATM   11  C   UNK     0      58.680  54.445  86.766  0.00  0.00     0.041 A 
ENDROOT
BRANCH   6  12
HETATM   12  N   UNK     0      57.269  56.019  83.690  0.00  0.00    -0.276 N 
HETATM   13  H   UNK     0      57.811  56.273  82.856  0.00  0.00     0.179 HD
BRANCH  12  14
HETATM   14  S   UNK     0      55.592  56.240  83.610  0.00  0.00     0.269 S 
HETATM   15  O   UNK     0      55.172  57.196  84.617  0.00  0.00    -0.200 OA
HETATM   16  O   UNK     0      54.930  54.954  83.496  0.00  0.00    -0.200 OA
BRANCH  14  17
HETATM   17  C   UNK     0      55.458  57.039  82.037  0.00  0.00     0.122 A 
HETATM   18  S   UNK     0      54.106  56.557  81.113  0.00  0.00    -0.064 SA
HETATM   19  C   UNK     0      54.547  57.609  79.837  0.00  0.00     0.075 A 
HETATM   20 Cl   UNK     0      53.583  57.699  78.421  0.00  0.00    -0.076 Cl
HETATM   21  C   UNK     0      55.700  58.307  80.117  0.00  0.00     0.033 A 
HETATM   22  C   UNK     0      56.228  57.974  81.398  0.00  0.00     0.035 A 
ENDBRANCH  14  17
ENDBRANCH  12  14
ENDBRANCH   6  12
BRANCH   8  23
HETATM   23  O   UNK     0      57.591  56.527  86.431  0.00  0.00    -0.354 OA
HETATM   24  C   UNK     0      57.095  56.491  87.767  0.00  0.00     0.210 C 
ENDBRANCH   8  23
BRANCH   4  25
HETATM   25  C   UNK     0      57.914  53.779  81.520  0.00  0.00     0.296 C 
HETATM   26  O   UNK     0      58.142  54.909  81.054  0.00  0.00    -0.259 OA
BRANCH  25  27
HETATM   27  O   UNK     0      57.105  52.871  80.871  0.00  0.00    -0.318 OA
BRANCH  27  28
HETATM   28  C   UNK     0      55.812  52.630  81.439  0.00  0.00     0.174 C 
HETATM   29  C   UNK     0      55.603  51.138  81.574  0.00  0.00     0.034 C 
ENDBRANCH  27  28
ENDBRANCH  25  27
ENDBRANCH   4  25
TORSDOF 7
ENDMDL
MODEL 7
REMARK VINA RESULT:      -6.2      1.733      2.266
REMARK  7 active torsions:
REMARK  status: ('A' for Active; 'I' for Inactive)
REMARK    1  A    between atoms: S_2  and  N_10 
REMARK    2  A    between atoms: S_2  and  C_22 
REMARK    3  A    between atoms: O_4  and  C_17 
REMARK    4  A    between atoms: O_5  and  C_21 
REMARK    5  A    between atoms: O_5  and  C_24 
REMARK    6  A    between atoms: N_10  and  C_15 
REMARK    7  A    between atoms: C_13  and  C_21 
ROOT
HETATM    1  N   UNK     0      62.163  73.147  65.043  0.00  0.00    -0.353 N 
HETATM    2  C   UNK     0      64.268  73.863  64.876  0.00  0.00     0.039 A 
HETATM    3  C   UNK     0      63.278  73.114  64.237  0.00  0.00     0.048 A 
HETATM    4  C   UNK     0      63.708  74.344  66.092  0.00  0.00     0.076 A 
HETATM    5  C   UNK     0      62.413  73.887  66.167  0.00  0.00     0.025 A 
HETATM    6  C   UNK     0      65.527  73.993  64.256  0.00  0.00     0.089 A 
HETATM    7  C   UNK     0      63.483  72.486  63.004  0.00  0.00     0.033 A 
HETATM    8  C   UNK     0      65.747  73.370  63.022  0.00  0.00     0.096 A 
HETATM    9  C   UNK     0      60.905  72.492  64.742  0.00  0.00     0.156 C 
HETATM   10  C   UNK     0      61.386  74.091  67.212  0.00  0.00     0.069 C 
HETATM   11  C   UNK     0      64.741  72.629  62.407  0.00  0.00     0.041 A 
ENDROOT
BRANCH   6  12
HETATM   12  N   UNK     0      66.574  74.750  64.871  0.00  0.00    -0.276 N 
HETATM   13  H   UNK     0      66.462  75.767  64.801  0.00  0.00     0.179 HD
BRANCH  12  14
HETATM   14  S   UNK     0      67.545  74.172  66.133  0.00  0.00     0.269 S 
HETATM   15  O   UNK     0      66.830  73.154  66.879  0.00  0.00    -0.200 OA
HETATM   16  O   UNK     0      68.171  75.284  66.823  0.00  0.00    -0.200 OA
BRANCH  14  17
HETATM   17  C   UNK     0      68.809  73.354  65.204  0.00  0.00     0.122 A 
HETATM   18  S   UNK     0      70.225  74.279  64.972  0.00  0.00    -0.064 SA
HETATM   19  C   UNK     0      70.958  73.015  64.080  0.00  0.00     0.075 A 
HETATM   20 Cl   UNK     0      72.542  73.209  63.452  0.00  0.00    -0.076 Cl
HETATM   21  C   UNK     0      70.135  71.917  63.966  0.00  0.00     0.033 A 
HETATM   22  C   UNK     0      68.885  72.116  64.621  0.00  0.00     0.035 A 
ENDBRANCH  14  17
ENDBRANCH  12  14
ENDBRANCH   6  12
BRANCH   8  23
HETATM   23  O   UNK     0      66.956  73.479  62.398  0.00  0.00    -0.354 OA
HETATM   24  C   UNK     0      66.971  74.120  61.126  0.00  0.00     0.210 C 
ENDBRANCH   8  23
BRANCH   4  25
HETATM   25  C   UNK     0      64.333  75.160  67.096  0.00  0.00     0.296 C 
HETATM   26  O   UNK     0      64.637  74.801  68.246  0.00  0.00    -0.259 OA
BRANCH  25  27
HETATM   27  O   UNK     0      64.575  76.439  66.642  0.00  0.00    -0.318 OA
BRANCH  27  28
HETATM   28  C   UNK     0      63.596  77.015  65.769  0.00  0.00     0.174 C 
HETATM   29  C   UNK     0      62.510  77.658  66.604  0.00  0.00     0.034 C 
ENDBRANCH  27  28
ENDBRANCH  25  27
ENDBRANCH   4  25
TORSDOF 7
ENDMDL
MODEL 8
REMARK VINA RESULT:      -6.2     22.679     24.960
REMARK  7 active torsions:
REMARK  status: ('A' for Active; 'I' for Inactive)
REMARK    1  A    between atoms: S_2  and  N_10 
REMARK    2  A    between atoms: S_2  and  C_22 
REMARK    3  A    between atoms: O_4  and  C_17 
REMARK    4  A    between atoms: O_5  and  C_21 
REMARK    5  A    between atoms: O_5  and  C_24 
REMARK    6  A    between atoms: N_10  and  C_15 
REMARK    7  A    between atoms: C_13  and  C_21 
ROOT
HETATM    1  N   UNK     0      55.211  51.512  60.168  0.00  0.00    -0.353 N 
HETATM    2  C   UNK     0      55.312  52.176  62.295  0.00  0.00     0.039 A 
HETATM    3  C   UNK     0      55.021  52.596  60.996  0.00  0.00     0.048 A 
HETATM    4  C   UNK     0      55.684  50.805  62.218  0.00  0.00     0.076 A 
HETATM    5  C   UNK     0      55.613  50.425  60.897  0.00  0.00     0.025 A 
HETATM    6  C   UNK     0      55.195  53.103  63.350  0.00  0.00     0.089 A 
HETATM    7  C   UNK     0      54.617  53.901  60.696  0.00  0.00     0.033 A 
HETATM    8  C   UNK     0      54.792  54.413  63.065  0.00  0.00     0.096 A 
HETATM    9  C   UNK     0      55.013  51.522  58.732  0.00  0.00     0.156 C 
HETATM   10  C   UNK     0      55.892  49.118  60.262  0.00  0.00     0.069 C 
HETATM   11  C   UNK     0      54.507  54.803  61.759  0.00  0.00     0.041 A 
ENDROOT
BRANCH   6  12
HETATM   12  N   UNK     0      55.483  52.721  64.698  0.00  0.00    -0.276 N 
HETATM   13  H   UNK     0      54.901  51.956  65.057  0.00  0.00     0.179 HD
BRANCH  12  14
HETATM   14  S   UNK     0      56.979  52.965  65.454  0.00  0.00     0.269 S 
HETATM   15  O   UNK     0      57.190  54.382  65.683  0.00  0.00    -0.200 OA
HETATM   16  O   UNK     0      57.998  52.167  64.800  0.00  0.00    -0.200 OA
BRANCH  14  17
HETATM   17  C   UNK     0      56.659  52.220  67.027  0.00  0.00     0.122 A 
HETATM   18  S   UNK     0      55.090  52.507  67.637  0.00  0.00    -0.064 SA
HETATM   19  C   UNK     0      55.424  51.597  69.047  0.00  0.00     0.075 A 
HETATM   20 Cl   UNK     0      54.222  51.405  70.255  0.00  0.00    -0.076 Cl
HETATM   21  C   UNK     0      56.704  51.090  69.045  0.00  0.00     0.033 A 
HETATM   22  C   UNK     0      57.421  51.454  67.868  0.00  0.00     0.035 A 
ENDBRANCH  14  17
ENDBRANCH  12  14
ENDBRANCH   6  12
BRANCH   8  23
HETATM   23  O   UNK     0      54.669  55.332  64.066  0.00  0.00    -0.354 OA
HETATM   24  C   UNK     0      55.291  56.598  63.860  0.00  0.00     0.210 C 
ENDBRANCH   8  23
BRANCH   4  25
HETATM   25  C   UNK     0      56.073  49.928  63.288  0.00  0.00     0.296 C 
HETATM   26  O   UNK     0      55.450  49.746  64.348  0.00  0.00    -0.259 OA
BRANCH  25  27
HETATM   27  O   UNK     0      57.257  49.278  63.015  0.00  0.00    -0.318 OA
BRANCH  27  28
HETATM   28  C   UNK     0      57.280  47.859  63.210  0.00  0.00     0.174 C 
HETATM   29  C   UNK     0      58.554  47.300  62.616  0.00  0.00     0.034 C 
ENDBRANCH  27  28
ENDBRANCH  25  27
ENDBRANCH   4  25
TORSDOF 7
ENDMDL
MODEL 9
REMARK VINA RESULT:      -6.1     22.322     25.048
REMARK  7 active torsions:
REMARK  status: ('A' for Active; 'I' for Inactive)
REMARK    1  A    between atoms: S_2  and  N_10 
REMARK    2  A    between atoms: S_2  and  C_22 
REMARK    3  A    between atoms: O_4  and  C_17 
REMARK    4  A    between atoms: O_5  and  C_21 
REMARK    5  A    between atoms: O_5  and  C_24 
REMARK    6  A    between atoms: N_10  and  C_15 
REMARK    7  A    between atoms: C_13  and  C_21 
ROOT
HETATM    1  N   UNK     0      46.796  58.118  71.551  0.00  0.00    -0.353 N 
HETATM    2  C   UNK     0      48.513  58.745  72.828  0.00  0.00     0.039 A 
HETATM    3  C   UNK     0      47.770  59.081  71.695  0.00  0.00     0.048 A 
HETATM    4  C   UNK     0      47.953  57.549  73.357  0.00  0.00     0.076 A 
HETATM    5  C   UNK     0      46.898  57.188  72.550  0.00  0.00     0.025 A 
HETATM    6  C   UNK     0      49.586  59.577  73.206  0.00  0.00     0.089 A 
HETATM    7  C   UNK     0      48.045  60.210  70.917  0.00  0.00     0.033 A 
HETATM    8  C   UNK     0      49.873  60.711  72.438  0.00  0.00     0.096 A 
HETATM    9  C   UNK     0      45.804  58.096  70.494  0.00  0.00     0.156 C 
HETATM   10  C   UNK     0      45.975  56.036  72.642  0.00  0.00     0.069 C 
HETATM   11  C   UNK     0      49.114  61.021  71.312  0.00  0.00     0.041 A 
ENDROOT
BRANCH   6  12
HETATM   12  N   UNK     0      50.378  59.276  74.359  0.00  0.00    -0.276 N 
HETATM   13  H   UNK     0      49.851  59.236  75.239  0.00  0.00     0.179 HD
BRANCH  12  14
HETATM   14  S   UNK     0      51.845  58.431  74.307  0.00  0.00     0.269 S 
HETATM   15  O   UNK     0      52.896  59.300  73.812  0.00  0.00    -0.200 OA
HETATM   16  O   UNK     0      51.639  57.120  73.722  0.00  0.00    -0.200 OA
BRANCH  14  17
HETATM   17  C   UNK     0      52.130  58.195  76.037  0.00  0.00     0.122 A 
HETATM   18  S   UNK     0      51.547  59.458  77.027  0.00  0.00    -0.064 SA
HETATM   19  C   UNK     0      52.104  58.667  78.440  0.00  0.00     0.075 A 
HETATM   20 Cl   UNK     0      51.863  59.382  79.979  0.00  0.00    -0.076 Cl
HETATM   21  C   UNK     0      52.719  57.469  78.153  0.00  0.00     0.033 A 
HETATM   22  C   UNK     0      52.733  57.196  76.755  0.00  0.00     0.035 A 
ENDBRANCH  14  17
ENDBRANCH  12  14
ENDBRANCH   6  12
BRANCH   8  23
HETATM   23  O   UNK     0      50.906  61.535  72.780  0.00  0.00    -0.354 OA
HETATM   24  C   UNK     0      50.762  62.286  73.982  0.00  0.00     0.210 C 
ENDBRANCH   8  23
BRANCH   4  25
HETATM   25  C   UNK     0      48.369  56.810  74.516  0.00  0.00     0.296 C 
HETATM   26  O   UNK     0      48.384  57.231  75.686  0.00  0.00    -0.259 OA
BRANCH  25  27
HETATM   27  O   UNK     0      48.769  55.531  74.194  0.00  0.00    -0.318 OA
BRANCH  27  28
HETATM   28  C   UNK     0      49.007  54.631  75.283  0.00  0.00     0.174 C 
HETATM   29  C   UNK     0      50.495  54.384  75.402  0.00  0.00     0.034 C 
ENDBRANCH  27  28
ENDBRANCH  25  27
ENDBRANCH   4  25
TORSDOF 7
ENDMDL
