MODEL 1
REMARK VINA RESULT:      -8.1      0.000      0.000
REMARK  5 active torsions:
REMARK  status: ('A' for Active; 'I' for Inactive)
REMARK    1  A    between atoms: S_1  and  N_5 
REMARK    2  A    between atoms: N_5  and  C_8 
REMARK    3  A    between atoms: N_5  and  C_14 
REMARK       I    between atoms: N_6  and  C_15 
REMARK    4  A    between atoms: N_7  and  C_21 
REMARK    5  A    between atoms: C_14  and  C_15 
ROOT
HETATM    1  O   UNK     0      69.669  74.382  63.573  0.00  0.00    -0.272 OA
HETATM    2  N   UNK     0      67.747  73.944  64.802  0.00  0.00    -0.348 N 
HETATM    3  N   UNK     0      64.908  73.401  64.968  0.00  0.00    -0.378 N 
HETATM    4  C   UNK     0      69.123  74.110  64.645  0.00  0.00     0.238 C 
HETATM    5  C   UNK     0      66.866  74.094  63.647  0.00  0.00     0.145 C 
HETATM    6  C   UNK     0      67.100  73.611  66.075  0.00  0.00     0.145 C 
HETATM    7  C   UNK     0      65.654  73.169  63.729  0.00  0.00     0.143 C 
HETATM    8  C   UNK     0      65.621  73.993  66.104  0.00  0.00     0.143 C 
ENDROOT
BRANCH   4   9
HETATM    9  C   UNK     0      69.961  73.944  65.889  0.00  0.00     0.238 C 
BRANCH   9  10
HETATM   10  N   UNK     0      71.338  73.869  65.402  0.00  0.00    -0.298 N 
BRANCH  10  11
HETATM   11  S   UNK     0      72.008  72.314  65.055  0.00  0.00     0.225 S 
HETATM   12  O   UNK     0      70.985  71.293  65.176  0.00  0.00    -0.206 OA
HETATM   13  O   UNK     0      72.808  72.405  63.847  0.00  0.00    -0.206 OA
HETATM   14  C   UNK     0      73.129  72.112  66.423  0.00  0.00     0.186 C 
ENDBRANCH  10  11
BRANCH  10  15
HETATM   15  C   UNK     0      72.237  74.854  66.053  0.00  0.00     0.096 C 
HETATM   16  C   UNK     0      71.417  75.732  67.000  0.00  0.00     0.026 C 
HETATM   17  C   UNK     0      72.268  76.841  67.611  0.00  0.00     0.002 C 
HETATM   18  C   UNK     0      72.966  77.672  66.538  0.00  0.00     0.000 C 
HETATM   19  C   UNK     0      73.780  76.798  65.588  0.00  0.00     0.002 C 
HETATM   20  C   UNK     0      72.929  75.689  64.975  0.00  0.00     0.026 C 
ENDBRANCH  10  15
ENDBRANCH   9  10
ENDBRANCH   4   9
BRANCH   3  21
HETATM   21  C   UNK     0      63.550  73.101  65.049  0.00  0.00     0.030 A 
HETATM   22  C   UNK     0      62.637  73.980  65.678  0.00  0.00     0.029 A 
HETATM   23  C   UNK     0      61.278  73.680  65.760  0.00  0.00     0.002 A 
HETATM   24  C   UNK     0      60.792  72.492  65.213  0.00  0.00     0.000 A 
HETATM   25  C   UNK     0      61.667  71.604  64.586  0.00  0.00     0.002 A 
HETATM   26  C   UNK     0      63.026  71.905  64.504  0.00  0.00     0.029 A 
ENDBRANCH   3  21
TORSDOF 5
ENDMDL
MODEL 2
REMARK VINA RESULT:      -8.0      2.164      2.764
REMARK  5 active torsions:
REMARK  status: ('A' for Active; 'I' for Inactive)
REMARK    1  A    between atoms: S_1  and  N_5 
REMARK    2  A    between atoms: N_5  and  C_8 
REMARK    3  A    between atoms: N_5  and  C_14 
REMARK       I    between atoms: N_6  and  C_15 
REMARK    4  A    between atoms: N_7  and  C_21 
REMARK    5  A    between atoms: C_14  and  C_15 
ROOT
HETATM    1  O   UNK     0      69.445  75.241  66.168  0.00  0.00    -0.272 OA
HETATM    2  N   UNK     0      67.364  74.297  65.754  0.00  0.00    -0.348 N 
HETATM    3  N   UNK     0      64.498  74.519  65.412  0.00  0.00    -0.378 N 
HETATM    4  C   UNK     0      68.757  74.275  65.831  0.00  0.00     0.238 C 
HETATM    5  C   UNK     0      66.642  75.523  66.086  0.00  0.00     0.145 C 
HETATM    6  C   UNK     0      66.547  73.152  65.344  0.00  0.00     0.145 C 
HETATM    7  C   UNK     0      65.374  75.683  65.251  0.00  0.00     0.143 C 
HETATM    8  C   UNK     0      65.101  73.251  65.831  0.00  0.00     0.143 C 
ENDROOT
BRANCH   4   9
HETATM    9  C   UNK     0      69.424  72.969  65.478  0.00  0.00     0.238 C 
BRANCH   9  10
HETATM   10  N   UNK     0      70.219  73.267  64.287  0.00  0.00    -0.298 N 
BRANCH  10  11
HETATM   11  S   UNK     0      69.649  72.712  62.753  0.00  0.00     0.225 S 
HETATM   12  O   UNK     0      68.399  71.995  62.916  0.00  0.00    -0.206 OA
HETATM   13  O   UNK     0      69.748  73.796  61.793  0.00  0.00    -0.206 OA
HETATM   14  C   UNK     0      70.901  71.516  62.337  0.00  0.00     0.186 C 
ENDBRANCH  10  11
BRANCH  10  15
HETATM   15  C   UNK     0      71.680  73.180  64.530  0.00  0.00     0.096 C 
HETATM   16  C   UNK     0      71.923  72.632  65.937  0.00  0.00     0.026 C 
HETATM   17  C   UNK     0      73.408  72.628  66.287  0.00  0.00     0.002 C 
HETATM   18  C   UNK     0      74.033  74.009  66.107  0.00  0.00     0.000 C 
HETATM   19  C   UNK     0      73.787  74.561  64.705  0.00  0.00     0.002 C 
HETATM   20  C   UNK     0      72.301  74.567  64.356  0.00  0.00     0.026 C 
ENDBRANCH  10  15
ENDBRANCH   9  10
ENDBRANCH   4   9
BRANCH   3  21
HETATM   21  C   UNK     0      63.124  74.630  65.208  0.00  0.00     0.030 A 
HETATM   22  C   UNK     0      62.239  73.587  65.572  0.00  0.00     0.029 A 
HETATM   23  C   UNK     0      60.864  73.696  65.367  0.00  0.00     0.002 A 
HETATM   24  C   UNK     0      60.334  74.852  64.794  0.00  0.00     0.000 A 
HETATM   25  C   UNK     0      61.180  75.898  64.424  0.00  0.00     0.002 A 
HETATM   26  C   UNK     0      62.555  75.788  64.629  0.00  0.00     0.029 A 
ENDBRANCH   3  21
TORSDOF 5
ENDMDL
MODEL 3
REMARK VINA RESULT:      -7.7      2.260      3.788
REMARK  5 active torsions:
REMARK  status: ('A' for Active; 'I' for Inactive)
REMARK    1  A    between atoms: S_1  and  N_5 
REMARK    2  A    between atoms: N_5  and  C_8 
REMARK    3  A    between atoms: N_5  and  C_14 
REMARK       I    between atoms: N_6  and  C_15 
REMARK    4  A    between atoms: N_7  and  C_21 
REMARK    5  A    between atoms: C_14  and  C_15 
ROOT
HETATM    1  O   UNK     0      71.029  71.140  65.136  0.00  0.00    -0.272 OA
HETATM    2  N   UNK     0      69.419  72.553  64.236  0.00  0.00    -0.348 N 
HETATM    3  N   UNK     0      66.672  73.424  63.965  0.00  0.00    -0.378 N 
HETATM    4  C   UNK     0      70.730  72.146  64.489  0.00  0.00     0.238 C 
HETATM    5  C   UNK     0      68.306  71.762  64.755  0.00  0.00     0.145 C 
HETATM    6  C   UNK     0      69.065  73.754  63.475  0.00  0.00     0.145 C 
HETATM    7  C   UNK     0      67.107  72.634  65.119  0.00  0.00     0.143 C 
HETATM    8  C   UNK     0      67.648  73.696  62.905  0.00  0.00     0.143 C 
ENDROOT
BRANCH   4   9
HETATM    9  C   UNK     0      71.821  73.015  63.912  0.00  0.00     0.238 C 
BRANCH   9  10
HETATM   10  N   UNK     0      72.446  73.646  65.073  0.00  0.00    -0.298 N 
BRANCH  10  11
HETATM   11  S   UNK     0      72.029  75.280  65.450  0.00  0.00     0.225 S 
HETATM   12  O   UNK     0      70.687  75.337  65.998  0.00  0.00    -0.206 OA
HETATM   13  O   UNK     0      73.134  75.897  66.161  0.00  0.00    -0.206 OA
HETATM   14  C   UNK     0      71.972  76.001  63.824  0.00  0.00     0.186 C 
ENDBRANCH  10  11
BRANCH  10  15
HETATM   15  C   UNK     0      73.870  73.263  65.243  0.00  0.00     0.096 C 
HETATM   16  C   UNK     0      74.390  72.672  63.932  0.00  0.00     0.026 C 
HETATM   17  C   UNK     0      75.817  72.152  64.081  0.00  0.00     0.002 C 
HETATM   18  C   UNK     0      75.937  71.157  65.232  0.00  0.00     0.000 C 
HETATM   19  C   UNK     0      75.413  71.742  66.540  0.00  0.00     0.002 C 
HETATM   20  C   UNK     0      73.985  72.260  66.392  0.00  0.00     0.026 C 
ENDBRANCH  10  15
ENDBRANCH   9  10
ENDBRANCH   4   9
BRANCH   3  21
HETATM   21  C   UNK     0      65.356  73.870  63.862  0.00  0.00     0.030 A 
HETATM   22  C   UNK     0      65.045  75.250  63.847  0.00  0.00     0.029 A 
HETATM   23  C   UNK     0      63.728  75.697  63.746  0.00  0.00     0.002 A 
HETATM   24  C   UNK     0      62.684  74.776  63.656  0.00  0.00     0.000 A 
HETATM   25  C   UNK     0      62.958  73.408  63.669  0.00  0.00     0.002 A 
HETATM   26  C   UNK     0      64.275  72.962  63.770  0.00  0.00     0.029 A 
ENDBRANCH   3  21
TORSDOF 5
ENDMDL
MODEL 4
REMARK VINA RESULT:      -7.6     24.514     25.652
REMARK  5 active torsions:
REMARK  status: ('A' for Active; 'I' for Inactive)
REMARK    1  A    between atoms: S_1  and  N_5 
REMARK    2  A    between atoms: N_5  and  C_8 
REMARK    3  A    between atoms: N_5  and  C_14 
REMARK       I    between atoms: N_6  and  C_15 
REMARK    4  A    between atoms: N_7  and  C_21 
REMARK    5  A    between atoms: C_14  and  C_15 
ROOT
HETATM    1  O   UNK     0      58.542  58.797  48.011  0.00  0.00    -0.272 OA
HETATM    2  N   UNK     0      58.642  57.324  49.804  0.00  0.00    -0.348 N 
HETATM    3  N   UNK     0      57.451  56.055  52.117  0.00  0.00    -0.378 N 
HETATM    4  C   UNK     0      59.119  57.897  48.625  0.00  0.00     0.238 C 
HETATM    5  C   UNK     0      57.384  57.794  50.377  0.00  0.00     0.145 C 
HETATM    6  C   UNK     0      59.324  56.248  50.528  0.00  0.00     0.145 C 
HETATM    7  C   UNK     0      56.621  56.673  51.079  0.00  0.00     0.143 C 
HETATM    8  C   UNK     0      58.907  56.165  51.996  0.00  0.00     0.143 C 
ENDROOT
BRANCH   4   9
HETATM    9  C   UNK     0      60.429  57.358  48.104  0.00  0.00     0.238 C 
BRANCH   9  10
HETATM   10  N   UNK     0      60.216  57.188  46.667  0.00  0.00    -0.298 N 
BRANCH  10  11
HETATM   11  S   UNK     0      59.520  55.708  46.106  0.00  0.00     0.225 S 
HETATM   12  O   UNK     0      58.150  55.596  46.570  0.00  0.00    -0.206 OA
HETATM   13  O   UNK     0      59.828  55.548  44.697  0.00  0.00    -0.206 OA
HETATM   14  C   UNK     0      60.487  54.514  47.004  0.00  0.00     0.186 C 
ENDBRANCH  10  11
BRANCH  10  15
HETATM   15  C   UNK     0      61.308  57.767  45.847  0.00  0.00     0.096 C 
HETATM   16  C   UNK     0      62.604  57.759  46.660  0.00  0.00     0.026 C 
HETATM   17  C   UNK     0      63.739  58.450  45.909  0.00  0.00     0.002 C 
HETATM   18  C   UNK     0      63.353  59.863  45.481  0.00  0.00     0.000 C 
HETATM   19  C   UNK     0      62.057  59.875  44.675  0.00  0.00     0.002 C 
HETATM   20  C   UNK     0      60.921  59.185  45.427  0.00  0.00     0.026 C 
ENDBRANCH  10  15
ENDBRANCH   9  10
ENDBRANCH   4   9
BRANCH   3  21
HETATM   21  C   UNK     0      56.866  55.415  53.208  0.00  0.00     0.030 A 
HETATM   22  C   UNK     0      55.891  54.404  53.032  0.00  0.00     0.029 A 
HETATM   23  C   UNK     0      55.305  53.763  54.123  0.00  0.00     0.002 A 
HETATM   24  C   UNK     0      55.676  54.114  55.421  0.00  0.00     0.000 A 
HETATM   25  C   UNK     0      56.635  55.108  55.627  0.00  0.00     0.002 A 
HETATM   26  C   UNK     0      57.221  55.748  54.536  0.00  0.00     0.029 A 
ENDBRANCH   3  21
TORSDOF 5
ENDMDL
MODEL 5
REMARK VINA RESULT:      -6.9     24.143     25.503
REMARK  5 active torsions:
REMARK  status: ('A' for Active; 'I' for Inactive)
REMARK    1  A    between atoms: S_1  and  N_5 
REMARK    2  A    between atoms: N_5  and  C_8 
REMARK    3  A    between atoms: N_5  and  C_14 
REMARK       I    between atoms: N_6  and  C_15 
REMARK    4  A    between atoms: N_7  and  C_21 
REMARK    5  A    between atoms: C_14  and  C_15 
ROOT
HETATM    1  O   UNK     0      55.007  55.117  59.024  0.00  0.00    -0.272 OA
HETATM    2  N   UNK     0      54.896  53.904  61.002  0.00  0.00    -0.348 N 
HETATM    3  N   UNK     0      54.373  53.724  63.844  0.00  0.00    -0.378 N 
HETATM    4  C   UNK     0      55.035  54.038  59.620  0.00  0.00     0.238 C 
HETATM    5  C   UNK     0      54.704  55.095  61.826  0.00  0.00     0.145 C 
HETATM    6  C   UNK     0      54.919  52.621  61.709  0.00  0.00     0.145 C 
HETATM    7  C   UNK     0      53.818  54.815  63.038  0.00  0.00     0.143 C 
HETATM    8  C   UNK     0      55.270  52.767  63.190  0.00  0.00     0.143 C 
ENDROOT
BRANCH   4   9
HETATM    9  C   UNK     0      55.235  52.760  58.843  0.00  0.00     0.238 C 
BRANCH   9  10
HETATM   10  N   UNK     0      55.172  53.164  57.440  0.00  0.00    -0.298 N 
BRANCH  10  11
HETATM   11  S   UNK     0      53.720  52.852  56.555  0.00  0.00     0.225 S 
HETATM   12  O   UNK     0      53.155  51.579  56.960  0.00  0.00    -0.206 OA
HETATM   13  O   UNK     0      52.899  54.049  56.559  0.00  0.00    -0.206 OA
HETATM   14  C   UNK     0      54.363  52.651  54.907  0.00  0.00     0.186 C 
ENDBRANCH  10  11
BRANCH  10  15
HETATM   15  C   UNK     0      56.453  52.957  56.719  0.00  0.00     0.096 C 
HETATM   16  C   UNK     0      57.374  52.087  57.575  0.00  0.00     0.026 C 
HETATM   17  C   UNK     0      58.752  51.936  56.936  0.00  0.00     0.002 C 
HETATM   18  C   UNK     0      59.383  53.291  56.630  0.00  0.00     0.000 C 
HETATM   19  C   UNK     0      58.462  54.164  55.782  0.00  0.00     0.002 C 
HETATM   20  C   UNK     0      57.085  54.317  56.422  0.00  0.00     0.026 C 
ENDBRANCH  10  15
ENDBRANCH   9  10
ENDBRANCH   4   9
BRANCH   3  21
HETATM   21  C   UNK     0      54.085  53.627  65.203  0.00  0.00     0.030 A 
HETATM   22  C   UNK     0      54.866  54.299  66.172  0.00  0.00     0.029 A 
HETATM   23  C   UNK     0      54.579  54.200  67.533  0.00  0.00     0.002 A 
HETATM   24  C   UNK     0      53.501  53.427  67.965  0.00  0.00     0.000 A 
HETATM   25  C   UNK     0      52.711  52.751  67.033  0.00  0.00     0.002 A 
HETATM   26  C   UNK     0      52.999  52.850  65.673  0.00  0.00     0.029 A 
ENDBRANCH   3  21
TORSDOF 5
ENDMDL
MODEL 6
REMARK VINA RESULT:      -6.8     23.476     26.269
REMARK  5 active torsions:
REMARK  status: ('A' for Active; 'I' for Inactive)
REMARK    1  A    between atoms: S_1  and  N_5 
REMARK    2  A    between atoms: N_5  and  C_8 
REMARK    3  A    between atoms: N_5  and  C_14 
REMARK       I    between atoms: N_6  and  C_15 
REMARK    4  A    between atoms: N_7  and  C_21 
REMARK    5  A    between atoms: C_14  and  C_15 
ROOT
HETATM    1  O   UNK     0      49.677  57.585  75.279  0.00  0.00    -0.272 OA
HETATM    2  N   UNK     0      51.044  58.428  76.958  0.00  0.00    -0.348 N 
HETATM    3  N   UNK     0      53.225  58.141  78.840  0.00  0.00    -0.378 N 
HETATM    4  C   UNK     0      50.071  58.533  75.963  0.00  0.00     0.238 C 
HETATM    5  C   UNK     0      51.656  57.131  77.235  0.00  0.00     0.145 C 
HETATM    6  C   UNK     0      51.518  59.556  77.764  0.00  0.00     0.145 C 
HETATM    7  C   UNK     0      53.113  57.268  77.669  0.00  0.00     0.143 C 
HETATM    8  C   UNK     0      52.157  59.116  79.081  0.00  0.00     0.143 C 
ENDROOT
BRANCH   4   9
HETATM    9  C   UNK     0      49.485  59.906  75.745  0.00  0.00     0.238 C 
BRANCH   9  10
HETATM   10  N   UNK     0      49.822  60.238  74.361  0.00  0.00    -0.298 N 
BRANCH  10  11
HETATM   11  S   UNK     0      51.273  61.125  74.054  0.00  0.00     0.225 S 
HETATM   12  O   UNK     0      52.430  60.316  74.384  0.00  0.00    -0.206 OA
HETATM   13  O   UNK     0      51.172  61.757  72.751  0.00  0.00    -0.206 OA
HETATM   14  C   UNK     0      51.153  62.410  75.281  0.00  0.00     0.186 C 
ENDBRANCH  10  11
BRANCH  10  15
HETATM   15  C   UNK     0      48.634  60.595  73.546  0.00  0.00     0.096 C 
HETATM   16  C   UNK     0      47.444  60.841  74.475  0.00  0.00     0.026 C 
HETATM   17  C   UNK     0      46.163  61.099  73.686  0.00  0.00     0.002 C 
HETATM   18  C   UNK     0      45.878  59.976  72.693  0.00  0.00     0.000 C 
HETATM   19  C   UNK     0      47.066  59.724  71.769  0.00  0.00     0.002 C 
HETATM   20  C   UNK     0      48.347  59.464  72.557  0.00  0.00     0.026 C 
ENDBRANCH  10  15
ENDBRANCH   9  10
ENDBRANCH   4   9
BRANCH   3  21
HETATM   21  C   UNK     0      54.299  58.019  79.719  0.00  0.00     0.030 A 
HETATM   22  C   UNK     0      55.315  59.002  79.782  0.00  0.00     0.029 A 
HETATM   23  C   UNK     0      56.390  58.880  80.660  0.00  0.00     0.002 A 
HETATM   24  C   UNK     0      56.481  57.771  81.502  0.00  0.00     0.000 A 
HETATM   25  C   UNK     0      55.495  56.784  81.464  0.00  0.00     0.002 A 
HETATM   26  C   UNK     0      54.420  56.907  80.585  0.00  0.00     0.029 A 
ENDBRANCH   3  21
TORSDOF 5
ENDMDL
MODEL 7
REMARK VINA RESULT:      -6.8     23.154     26.052
REMARK  5 active torsions:
REMARK  status: ('A' for Active; 'I' for Inactive)
REMARK    1  A    between atoms: S_1  and  N_5 
REMARK    2  A    between atoms: N_5  and  C_8 
REMARK    3  A    between atoms: N_5  and  C_14 
REMARK       I    between atoms: N_6  and  C_15 
REMARK    4  A    between atoms: N_7  and  C_21 
REMARK    5  A    between atoms: C_14  and  C_15 
ROOT
HETATM    1  O   UNK     0      48.415  57.529  73.772  0.00  0.00    -0.272 OA
HETATM    2  N   UNK     0      50.251  57.949  75.133  0.00  0.00    -0.348 N 
HETATM    3  N   UNK     0      51.741  57.547  77.581  0.00  0.00    -0.378 N 
HETATM    4  C   UNK     0      49.534  58.021  73.938  0.00  0.00     0.238 C 
HETATM    5  C   UNK     0      49.672  57.255  76.280  0.00  0.00     0.145 C 
HETATM    6  C   UNK     0      51.584  58.526  75.326  0.00  0.00     0.145 C 
HETATM    7  C   UNK     0      50.740  56.575  77.134  0.00  0.00     0.143 C 
HETATM    8  C   UNK     0      51.915  58.773  76.797  0.00  0.00     0.143 C 
ENDROOT
BRANCH   4   9
HETATM    9  C   UNK     0      50.200  58.761  72.804  0.00  0.00     0.238 C 
BRANCH   9  10
HETATM   10  N   UNK     0      49.313  59.889  72.524  0.00  0.00    -0.298 N 
BRANCH  10  11
HETATM   11  S   UNK     0      48.672  60.059  70.928  0.00  0.00     0.225 S 
HETATM   12  O   UNK     0      48.234  61.425  70.711  0.00  0.00    -0.206 OA
HETATM   13  O   UNK     0      49.576  59.425  69.986  0.00  0.00    -0.206 OA
HETATM   14  C   UNK     0      47.214  59.042  71.035  0.00  0.00     0.186 C 
ENDBRANCH  10  11
BRANCH  10  15
HETATM   15  C   UNK     0      49.725  61.135  73.216  0.00  0.00     0.096 C 
HETATM   16  C   UNK     0      51.249  61.156  73.346  0.00  0.00     0.026 C 
HETATM   17  C   UNK     0      51.725  62.360  74.153  0.00  0.00     0.002 C 
HETATM   18  C   UNK     0      51.044  62.428  75.517  0.00  0.00     0.000 C 
HETATM   19  C   UNK     0      49.523  62.401  75.391  0.00  0.00     0.002 C 
HETATM   20  C   UNK     0      49.047  61.196  74.585  0.00  0.00     0.026 C 
ENDBRANCH  10  15
ENDBRANCH   9  10
ENDBRANCH   4   9
BRANCH   3  21
HETATM   21  C   UNK     0      52.479  57.325  78.742  0.00  0.00     0.030 A 
HETATM   22  C   UNK     0      53.847  57.678  78.824  0.00  0.00     0.029 A 
HETATM   23  C   UNK     0      54.586  57.454  79.985  0.00  0.00     0.002 A 
HETATM   24  C   UNK     0      53.979  56.873  81.098  0.00  0.00     0.000 A 
HETATM   25  C   UNK     0      52.632  56.513  81.048  0.00  0.00     0.002 A 
HETATM   26  C   UNK     0      51.893  56.736  79.887  0.00  0.00     0.029 A 
ENDBRANCH   3  21
TORSDOF 5
ENDMDL
MODEL 8
REMARK VINA RESULT:      -6.7     24.110     25.696
REMARK  5 active torsions:
REMARK  status: ('A' for Active; 'I' for Inactive)
REMARK    1  A    between atoms: S_1  and  N_5 
REMARK    2  A    between atoms: N_5  and  C_8 
REMARK    3  A    between atoms: N_5  and  C_14 
REMARK       I    between atoms: N_6  and  C_15 
REMARK    4  A    between atoms: N_7  and  C_21 
REMARK    5  A    between atoms: C_14  and  C_15 
ROOT
HETATM    1  O   UNK     0      57.398  56.985  52.859  0.00  0.00    -0.272 OA
HETATM    2  N   UNK     0      58.295  56.649  50.743  0.00  0.00    -0.348 N 
HETATM    3  N   UNK     0      59.425  57.654  48.275  0.00  0.00    -0.378 N 
HETATM    4  C   UNK     0      57.838  56.227  51.991  0.00  0.00     0.238 C 
HETATM    5  C   UNK     0      58.267  58.069  50.406  0.00  0.00     0.145 C 
HETATM    6  C   UNK     0      58.826  55.748  49.716  0.00  0.00     0.145 C 
HETATM    7  C   UNK     0      59.427  58.464  49.496  0.00  0.00     0.143 C 
HETATM    8  C   UNK     0      58.763  56.348  48.312  0.00  0.00     0.143 C 
ENDROOT
BRANCH   4   9
HETATM    9  C   UNK     0      57.896  54.742  52.257  0.00  0.00     0.238 C 
BRANCH   9  10
HETATM   10  N   UNK     0      58.619  54.619  53.521  0.00  0.00    -0.298 N 
BRANCH  10  11
HETATM   11  S   UNK     0      60.309  54.260  53.474  0.00  0.00     0.225 S 
HETATM   12  O   UNK     0      61.029  55.337  52.822  0.00  0.00    -0.206 OA
HETATM   13  O   UNK     0      60.727  53.791  54.783  0.00  0.00    -0.206 OA
HETATM   14  C   UNK     0      60.330  52.860  52.374  0.00  0.00     0.186 C 
ENDBRANCH  10  11
BRANCH  10  15
HETATM   15  C   UNK     0      57.823  53.952  54.581  0.00  0.00     0.096 C 
HETATM   16  C   UNK     0      56.583  53.315  53.951  0.00  0.00     0.026 C 
HETATM   17  C   UNK     0      55.665  52.712  55.010  0.00  0.00     0.002 C 
HETATM   18  C   UNK     0      55.288  53.736  56.077  0.00  0.00     0.000 C 
HETATM   19  C   UNK     0      56.523  54.378  56.704  0.00  0.00     0.002 C 
HETATM   20  C   UNK     0      57.442  54.982  55.645  0.00  0.00     0.026 C 
ENDBRANCH  10  15
ENDBRANCH   9  10
ENDBRANCH   4   9
BRANCH   3  21
HETATM   21  C   UNK     0      60.005  58.134  47.102  0.00  0.00     0.030 A 
HETATM   22  C   UNK     0      60.227  59.517  46.902  0.00  0.00     0.029 A 
HETATM   23  C   UNK     0      60.806  59.997  45.728  0.00  0.00     0.002 A 
HETATM   24  C   UNK     0      61.181  59.108  44.720  0.00  0.00     0.000 A 
HETATM   25  C   UNK     0      60.975  57.738  44.887  0.00  0.00     0.002 A 
HETATM   26  C   UNK     0      60.396  57.258  46.061  0.00  0.00     0.029 A 
ENDBRANCH   3  21
TORSDOF 5
ENDMDL
MODEL 9
REMARK VINA RESULT:      -6.7     26.522     28.378
REMARK  5 active torsions:
REMARK  status: ('A' for Active; 'I' for Inactive)
REMARK    1  A    between atoms: S_1  and  N_5 
REMARK    2  A    between atoms: N_5  and  C_8 
REMARK    3  A    between atoms: N_5  and  C_14 
REMARK       I    between atoms: N_6  and  C_15 
REMARK    4  A    between atoms: N_7  and  C_21 
REMARK    5  A    between atoms: C_14  and  C_15 
ROOT
HETATM    1  O   UNK     0      51.989  55.974  81.511  0.00  0.00    -0.272 OA
HETATM    2  N   UNK     0      54.259  56.371  81.811  0.00  0.00    -0.348 N 
HETATM    3  N   UNK     0      56.975  55.435  82.163  0.00  0.00    -0.378 N 
HETATM    4  C   UNK     0      52.945  56.754  81.540  0.00  0.00     0.238 C 
HETATM    5  C   UNK     0      54.559  54.968  82.083  0.00  0.00     0.145 C 
HETATM    6  C   UNK     0      55.394  57.297  81.836  0.00  0.00     0.145 C 
HETATM    7  C   UNK     0      55.945  54.573  81.578  0.00  0.00     0.143 C 
HETATM    8  C   UNK     0      56.577  56.761  82.643  0.00  0.00     0.143 C 
ENDROOT
BRANCH   4   9
HETATM    9  C   UNK     0      52.718  58.222  81.276  0.00  0.00     0.238 C 
BRANCH   9  10
HETATM   10  N   UNK     0      51.893  58.260  80.070  0.00  0.00    -0.298 N 
BRANCH  10  11
HETATM   11  S   UNK     0      52.675  58.421  78.537  0.00  0.00     0.225 S 
HETATM   12  O   UNK     0      52.266  59.656  77.896  0.00  0.00    -0.206 OA
HETATM   13  O   UNK     0      54.085  58.112  78.694  0.00  0.00    -0.206 OA
HETATM   14  C   UNK     0      51.933  57.078  77.634  0.00  0.00     0.186 C 
ENDBRANCH  10  11
BRANCH  10  15
HETATM   15  C   UNK     0      50.628  59.015  80.258  0.00  0.00     0.096 C 
HETATM   16  C   UNK     0      50.716  59.826  81.551  0.00  0.00     0.026 C 
HETATM   17  C   UNK     0      49.399  60.534  81.857  0.00  0.00     0.002 C 
HETATM   18  C   UNK     0      48.228  59.555  81.887  0.00  0.00     0.000 C 
HETATM   19  C   UNK     0      48.142  58.739  80.600  0.00  0.00     0.002 C 
HETATM   20  C   UNK     0      49.459  58.030  80.294  0.00  0.00     0.026 C 
ENDBRANCH  10  15
ENDBRANCH   9  10
ENDBRANCH   4   9
BRANCH   3  21
HETATM   21  C   UNK     0      58.288  54.987  82.294  0.00  0.00     0.030 A 
HETATM   22  C   UNK     0      59.056  55.281  83.445  0.00  0.00     0.029 A 
HETATM   23  C   UNK     0      60.370  54.834  83.576  0.00  0.00     0.002 A 
HETATM   24  C   UNK     0      60.955  54.079  82.559  0.00  0.00     0.000 A 
HETATM   25  C   UNK     0      60.223  53.772  81.410  0.00  0.00     0.002 A 
HETATM   26  C   UNK     0      58.909  54.219  81.280  0.00  0.00     0.029 A 
ENDBRANCH   3  21
TORSDOF 5
ENDMDL
