MODEL 1
REMARK VINA RESULT:      -7.4      0.000      0.000
REMARK  5 active torsions:
REMARK  status: ('A' for Active; 'I' for Inactive)
REMARK    1  A    between atoms: S_1  and  C_6 
REMARK    2  A    between atoms: S_1  and  C_14 
REMARK       I    between atoms: N_3  and  C_8 
REMARK    3  A    between atoms: N_3  and  C_9 
REMARK    4  A    between atoms: C_6  and  C_7 
REMARK    5  A    between atoms: C_6  and  C_8 
ROOT
HETATM    1  O   UNK     0      65.675  75.330  63.411  0.00  0.00    -0.272 OA
HETATM    2  N   UNK     0      65.630  73.962  65.321  0.00  0.00    -0.325 N 
HETATM    3  C   UNK     0      66.225  74.579  64.213  0.00  0.00     0.236 C 
HETATM    4  H   UNK     0      66.183  73.233  65.760  0.00  0.00     0.169 HD
ENDROOT
BRANCH   2   5
HETATM    5  C   UNK     0      64.309  74.082  65.770  0.00  0.00     0.045 A 
HETATM    6  C   UNK     0      63.296  73.216  65.325  0.00  0.00     0.001 A 
HETATM    7  C   UNK     0      61.978  73.386  65.812  0.00  0.00    -0.024 A 
HETATM    8  C   UNK     0      63.562  72.186  64.409  0.00  0.00     0.014 A 
HETATM    9  C   UNK     0      61.712  74.416  66.729  0.00  0.00     0.012 A 
HETATM   10  C   UNK     0      60.965  72.520  65.367  0.00  0.00     0.012 A 
HETATM   11  C   UNK     0      62.730  75.267  67.159  0.00  0.00     0.003 A 
HETATM   12  C   UNK     0      64.026  75.100  66.680  0.00  0.00     0.030 A 
HETATM   13  C   UNK     0      61.248  71.502  64.457  0.00  0.00     0.001 A 
HETATM   14  C   UNK     0      62.543  71.336  63.978  0.00  0.00     0.001 A 
ENDBRANCH   2   5
BRANCH   3  15
HETATM   15  C   UNK     0      67.695  74.190  64.061  0.00  0.00     0.147 C 
BRANCH  15  16
HETATM   16  S   UNK     0      68.141  73.238  65.559  0.00  0.00    -0.077 SA
BRANCH  16  17
HETATM   17  C   UNK     0      69.664  74.042  66.033  0.00  0.00     0.168 A 
HETATM   18  N   UNK     0      70.846  73.500  65.717  0.00  0.00    -0.339 N 
HETATM   19  C   UNK     0      71.784  74.357  66.220  0.00  0.00     0.112 A 
HETATM   20  C   UNK     0      71.145  72.280  65.000  0.00  0.00     0.158 C 
HETATM   21  C   UNK     0      71.059  75.365  66.810  0.00  0.00     0.136 A 
HETATM   22  N   UNK     0      69.710  75.147  66.681  0.00  0.00    -0.235 NA
ENDBRANCH  16  17
ENDBRANCH  15  16
BRANCH  15  23
HETATM   23  C   UNK     0      67.952  73.331  62.817  0.00  0.00     0.021 C 
HETATM   24  C   UNK     0      69.138  73.841  62.007  0.00  0.00     0.006 C 
ENDBRANCH  15  23
ENDBRANCH   3  15
TORSDOF 5
ENDMDL
MODEL 2
REMARK VINA RESULT:      -7.2      1.684      2.064
REMARK  5 active torsions:
REMARK  status: ('A' for Active; 'I' for Inactive)
REMARK    1  A    between atoms: S_1  and  C_6 
REMARK    2  A    between atoms: S_1  and  C_14 
REMARK       I    between atoms: N_3  and  C_8 
REMARK    3  A    between atoms: N_3  and  C_9 
REMARK    4  A    between atoms: C_6  and  C_7 
REMARK    5  A    between atoms: C_6  and  C_8 
ROOT
HETATM    1  O   UNK     0      67.274  75.632  65.910  0.00  0.00    -0.272 OA
HETATM    2  N   UNK     0      66.457  73.489  65.402  0.00  0.00    -0.325 N 
HETATM    3  C   UNK     0      67.357  74.560  65.317  0.00  0.00     0.236 C 
HETATM    4  H   UNK     0      66.582  72.762  64.704  0.00  0.00     0.169 HD
ENDROOT
BRANCH   2   5
HETATM    5  C   UNK     0      65.300  73.394  66.184  0.00  0.00     0.045 A 
HETATM    6  C   UNK     0      64.095  72.892  65.664  0.00  0.00     0.001 A 
HETATM    7  C   UNK     0      62.957  72.820  66.503  0.00  0.00    -0.024 A 
HETATM    8  C   UNK     0      63.996  72.459  64.333  0.00  0.00     0.014 A 
HETATM    9  C   UNK     0      63.058  73.252  67.835  0.00  0.00     0.012 A 
HETATM   10  C   UNK     0      61.752  72.318  65.983  0.00  0.00     0.012 A 
HETATM   11  C   UNK     0      64.262  73.748  68.334  0.00  0.00     0.003 A 
HETATM   12  C   UNK     0      65.381  73.819  67.510  0.00  0.00     0.030 A 
HETATM   13  C   UNK     0      61.672  71.893  64.657  0.00  0.00     0.001 A 
HETATM   14  C   UNK     0      62.791  71.964  63.833  0.00  0.00     0.001 A 
ENDBRANCH   2   5
BRANCH   3  15
HETATM   15  C   UNK     0      68.500  74.272  64.344  0.00  0.00     0.147 C 
BRANCH  15  16
HETATM   16  S   UNK     0      69.879  73.602  65.342  0.00  0.00    -0.077 SA
BRANCH  16  17
HETATM   17  C   UNK     0      71.185  74.750  64.933  0.00  0.00     0.168 A 
HETATM   18  N   UNK     0      71.590  75.664  65.821  0.00  0.00    -0.339 N 
HETATM   19  C   UNK     0      72.583  76.365  65.196  0.00  0.00     0.112 A 
HETATM   20  C   UNK     0      71.128  75.916  67.169  0.00  0.00     0.158 C 
HETATM   21  C   UNK     0      72.687  75.790  63.950  0.00  0.00     0.136 A 
HETATM   22  N   UNK     0      71.788  74.764  63.801  0.00  0.00    -0.235 NA
ENDBRANCH  16  17
ENDBRANCH  15  16
BRANCH  15  23
HETATM   23  C   UNK     0      68.111  73.256  63.263  0.00  0.00     0.021 C 
HETATM   24  C   UNK     0      69.192  72.201  63.058  0.00  0.00     0.006 C 
ENDBRANCH  15  23
ENDBRANCH   3  15
TORSDOF 5
ENDMDL
MODEL 3
REMARK VINA RESULT:      -6.9     22.042     24.380
REMARK  5 active torsions:
REMARK  status: ('A' for Active; 'I' for Inactive)
REMARK    1  A    between atoms: S_1  and  C_6 
REMARK    2  A    between atoms: S_1  and  C_14 
REMARK       I    between atoms: N_3  and  C_8 
REMARK    3  A    between atoms: N_3  and  C_9 
REMARK    4  A    between atoms: C_6  and  C_7 
REMARK    5  A    between atoms: C_6  and  C_8 
ROOT
HETATM    1  O   UNK     0      57.124  52.118  64.660  0.00  0.00    -0.272 OA
HETATM    2  N   UNK     0      55.049  52.370  63.587  0.00  0.00    -0.325 N 
HETATM    3  C   UNK     0      55.958  52.505  64.644  0.00  0.00     0.236 C 
HETATM    4  H   UNK     0      54.083  52.578  63.817  0.00  0.00     0.169 HD
ENDROOT
BRANCH   2   5
HETATM    5  C   UNK     0      55.268  51.796  62.329  0.00  0.00     0.045 A 
HETATM    6  C   UNK     0      55.054  52.515  61.140  0.00  0.00     0.001 A 
HETATM    7  C   UNK     0      55.291  51.881  59.897  0.00  0.00    -0.024 A 
HETATM    8  C   UNK     0      54.612  53.847  61.160  0.00  0.00     0.014 A 
HETATM    9  C   UNK     0      55.735  50.549  59.878  0.00  0.00     0.012 A 
HETATM   10  C   UNK     0      55.077  52.600  58.709  0.00  0.00     0.012 A 
HETATM   11  C   UNK     0      55.941  49.851  61.068  0.00  0.00     0.003 A 
HETATM   12  C   UNK     0      55.708  50.473  62.290  0.00  0.00     0.030 A 
HETATM   13  C   UNK     0      54.637  53.923  58.747  0.00  0.00     0.001 A 
HETATM   14  C   UNK     0      54.404  54.546  59.970  0.00  0.00     0.001 A 
ENDBRANCH   2   5
BRANCH   3  15
HETATM   15  C   UNK     0      55.329  53.191  65.856  0.00  0.00     0.147 C 
BRANCH  15  16
HETATM   16  S   UNK     0      56.707  53.679  66.956  0.00  0.00    -0.077 SA
BRANCH  16  17
HETATM   17  C   UNK     0      56.716  52.319  68.115  0.00  0.00     0.168 A 
HETATM   18  N   UNK     0      55.779  52.230  69.065  0.00  0.00    -0.339 N 
HETATM   19  C   UNK     0      56.077  51.093  69.763  0.00  0.00     0.112 A 
HETATM   20  C   UNK     0      54.664  53.104  69.353  0.00  0.00     0.158 C 
HETATM   21  C   UNK     0      57.200  50.588  69.149  0.00  0.00     0.136 A 
HETATM   22  N   UNK     0      57.592  51.383  68.102  0.00  0.00    -0.235 NA
ENDBRANCH  16  17
ENDBRANCH  15  16
BRANCH  15  23
HETATM   23  C   UNK     0      54.518  54.435  65.473  0.00  0.00     0.021 C 
HETATM   24  C   UNK     0      55.389  55.507  64.829  0.00  0.00     0.006 C 
ENDBRANCH  15  23
ENDBRANCH   3  15
TORSDOF 5
ENDMDL
MODEL 4
REMARK VINA RESULT:      -6.9      2.102      7.267
REMARK  5 active torsions:
REMARK  status: ('A' for Active; 'I' for Inactive)
REMARK    1  A    between atoms: S_1  and  C_6 
REMARK    2  A    between atoms: S_1  and  C_14 
REMARK       I    between atoms: N_3  and  C_8 
REMARK    3  A    between atoms: N_3  and  C_9 
REMARK    4  A    between atoms: C_6  and  C_7 
REMARK    5  A    between atoms: C_6  and  C_8 
ROOT
HETATM    1  O   UNK     0      65.960  76.484  65.137  0.00  0.00    -0.272 OA
HETATM    2  N   UNK     0      66.353  74.176  64.944  0.00  0.00    -0.325 N 
HETATM    3  C   UNK     0      65.692  75.318  65.414  0.00  0.00     0.236 C 
HETATM    4  H   UNK     0      66.119  73.311  65.421  0.00  0.00     0.169 HD
ENDROOT
BRANCH   2   5
HETATM    5  C   UNK     0      67.429  74.108  64.051  0.00  0.00     0.045 A 
HETATM    6  C   UNK     0      68.762  74.180  64.491  0.00  0.00     0.001 A 
HETATM    7  C   UNK     0      69.808  74.108  63.541  0.00  0.00    -0.024 A 
HETATM    8  C   UNK     0      69.077  74.321  65.851  0.00  0.00     0.014 A 
HETATM    9  C   UNK     0      69.492  73.965  62.180  0.00  0.00     0.012 A 
HETATM   10  C   UNK     0      71.141  74.179  63.981  0.00  0.00     0.012 A 
HETATM   11  C   UNK     0      68.164  73.896  61.761  0.00  0.00     0.003 A 
HETATM   12  C   UNK     0      67.135  73.968  62.694  0.00  0.00     0.030 A 
HETATM   13  C   UNK     0      71.436  74.320  65.337  0.00  0.00     0.001 A 
HETATM   14  C   UNK     0      70.406  74.391  66.271  0.00  0.00     0.001 A 
ENDBRANCH   2   5
BRANCH   3  15
HETATM   15  C   UNK     0      64.562  74.967  66.382  0.00  0.00     0.147 C 
BRANCH  15  16
HETATM   16  S   UNK     0      62.995  75.290  65.494  0.00  0.00    -0.077 SA
BRANCH  16  17
HETATM   17  C   UNK     0      62.990  73.950  64.313  0.00  0.00     0.168 A 
HETATM   18  N   UNK     0      62.221  72.874  64.509  0.00  0.00    -0.339 N 
HETATM   19  C   UNK     0      62.455  72.060  63.436  0.00  0.00     0.112 A 
HETATM   20  C   UNK     0      61.313  72.567  65.592  0.00  0.00     0.158 C 
HETATM   21  C   UNK     0      63.371  72.743  62.671  0.00  0.00     0.136 A 
HETATM   22  N   UNK     0      63.700  73.944  63.246  0.00  0.00    -0.235 NA
ENDBRANCH  16  17
ENDBRANCH  15  16
BRANCH  15  23
HETATM   23  C   UNK     0      64.602  73.500  66.827  0.00  0.00     0.021 C 
HETATM   24  C   UNK     0      63.874  73.285  68.149  0.00  0.00     0.006 C 
ENDBRANCH  15  23
ENDBRANCH   3  15
TORSDOF 5
ENDMDL
MODEL 5
REMARK VINA RESULT:      -6.6      2.041      7.507
REMARK  5 active torsions:
REMARK  status: ('A' for Active; 'I' for Inactive)
REMARK    1  A    between atoms: S_1  and  C_6 
REMARK    2  A    between atoms: S_1  and  C_14 
REMARK       I    between atoms: N_3  and  C_8 
REMARK    3  A    between atoms: N_3  and  C_9 
REMARK    4  A    between atoms: C_6  and  C_7 
REMARK    5  A    between atoms: C_6  and  C_8 
ROOT
HETATM    1  O   UNK     0      67.315  76.216  66.535  0.00  0.00    -0.272 OA
HETATM    2  N   UNK     0      67.910  73.998  66.041  0.00  0.00    -0.325 N 
HETATM    3  C   UNK     0      67.024  75.037  66.353  0.00  0.00     0.236 C 
HETATM    4  H   UNK     0      67.524  73.062  66.111  0.00  0.00     0.169 HD
ENDROOT
BRANCH   2   5
HETATM    5  C   UNK     0      69.295  74.075  65.846  0.00  0.00     0.045 A 
HETATM    6  C   UNK     0      69.930  73.407  64.785  0.00  0.00     0.001 A 
HETATM    7  C   UNK     0      71.334  73.520  64.639  0.00  0.00    -0.024 A 
HETATM    8  C   UNK     0      69.204  72.632  63.867  0.00  0.00     0.014 A 
HETATM    9  C   UNK     0      72.060  74.296  65.557  0.00  0.00     0.012 A 
HETATM   10  C   UNK     0      71.969  72.852  63.579  0.00  0.00     0.012 A 
HETATM   11  C   UNK     0      71.412  74.952  66.604  0.00  0.00     0.003 A 
HETATM   12  C   UNK     0      70.033  74.841  66.748  0.00  0.00     0.030 A 
HETATM   13  C   UNK     0      71.232  72.086  62.676  0.00  0.00     0.001 A 
HETATM   14  C   UNK     0      69.852  71.975  62.820  0.00  0.00     0.001 A 
ENDBRANCH   2   5
BRANCH   3  15
HETATM   15  C   UNK     0      65.584  74.541  66.484  0.00  0.00     0.147 C 
BRANCH  15  16
HETATM   16  S   UNK     0      65.133  73.814  64.867  0.00  0.00    -0.077 SA
BRANCH  16  17
HETATM   17  C   UNK     0      63.404  73.449  65.128  0.00  0.00     0.168 A 
HETATM   18  N   UNK     0      62.488  74.423  65.078  0.00  0.00    -0.339 N 
HETATM   19  C   UNK     0      61.291  73.809  65.317  0.00  0.00     0.112 A 
HETATM   20  C   UNK     0      62.652  75.838  64.831  0.00  0.00     0.158 C 
HETATM   21  C   UNK     0      61.606  72.481  65.493  0.00  0.00     0.136 A 
HETATM   22  N   UNK     0      62.957  72.272  65.369  0.00  0.00    -0.235 NA
ENDBRANCH  16  17
ENDBRANCH  15  16
BRANCH  15  23
HETATM   23  C   UNK     0      65.424  73.482  67.581  0.00  0.00     0.021 C 
HETATM   24  C   UNK     0      64.409  73.905  68.637  0.00  0.00     0.006 C 
ENDBRANCH  15  23
ENDBRANCH   3  15
TORSDOF 5
ENDMDL
MODEL 6
REMARK VINA RESULT:      -6.6      7.076     11.228
REMARK  5 active torsions:
REMARK  status: ('A' for Active; 'I' for Inactive)
REMARK    1  A    between atoms: S_1  and  C_6 
REMARK    2  A    between atoms: S_1  and  C_14 
REMARK       I    between atoms: N_3  and  C_8 
REMARK    3  A    between atoms: N_3  and  C_9 
REMARK    4  A    between atoms: C_6  and  C_7 
REMARK    5  A    between atoms: C_6  and  C_8 
ROOT
HETATM    1  O   UNK     0      77.295  74.696  66.161  0.00  0.00    -0.272 OA
HETATM    2  N   UNK     0      75.994  72.770  65.824  0.00  0.00    -0.325 N 
HETATM    3  C   UNK     0      76.377  74.100  65.606  0.00  0.00     0.236 C 
HETATM    4  H   UNK     0      75.103  72.503  65.419  0.00  0.00     0.169 HD
ENDROOT
BRANCH   2   5
HETATM    5  C   UNK     0      76.577  71.835  66.687  0.00  0.00     0.045 A 
HETATM    6  C   UNK     0      76.804  70.505  66.293  0.00  0.00     0.001 A 
HETATM    7  C   UNK     0      77.395  69.604  67.210  0.00  0.00    -0.024 A 
HETATM    8  C   UNK     0      76.457  70.052  65.011  0.00  0.00     0.014 A 
HETATM    9  C   UNK     0      77.743  70.058  68.493  0.00  0.00     0.012 A 
HETATM   10  C   UNK     0      77.622  68.274  66.817  0.00  0.00     0.012 A 
HETATM   11  C   UNK     0      77.510  71.381  68.867  0.00  0.00     0.003 A 
HETATM   12  C   UNK     0      76.928  72.267  67.966  0.00  0.00     0.030 A 
HETATM   13  C   UNK     0      77.271  67.841  65.538  0.00  0.00     0.001 A 
HETATM   14  C   UNK     0      76.689  68.728  64.637  0.00  0.00     0.001 A 
ENDBRANCH   2   5
BRANCH   3  15
HETATM   15  C   UNK     0      75.481  74.793  64.580  0.00  0.00     0.147 C 
BRANCH  15  16
HETATM   16  S   UNK     0      73.894  75.140  65.420  0.00  0.00    -0.077 SA
BRANCH  16  17
HETATM   17  C   UNK     0      72.795  74.039  64.542  0.00  0.00     0.168 A 
HETATM   18  N   UNK     0      71.843  74.526  63.738  0.00  0.00    -0.339 N 
HETATM   19  C   UNK     0      71.197  73.432  63.235  0.00  0.00     0.112 A 
HETATM   20  C   UNK     0      71.511  75.898  63.419  0.00  0.00     0.158 C 
HETATM   21  C   UNK     0      71.839  72.355  63.800  0.00  0.00     0.136 A 
HETATM   22  N   UNK     0      72.853  72.762  64.630  0.00  0.00    -0.235 NA
ENDBRANCH  16  17
ENDBRANCH  15  16
BRANCH  15  23
HETATM   23  C   UNK     0      76.083  76.106  64.064  0.00  0.00     0.021 C 
HETATM   24  C   UNK     0      75.099  76.882  63.196  0.00  0.00     0.006 C 
ENDBRANCH  15  23
ENDBRANCH   3  15
TORSDOF 5
ENDMDL
MODEL 7
REMARK VINA RESULT:      -6.6     22.513     25.699
REMARK  5 active torsions:
REMARK  status: ('A' for Active; 'I' for Inactive)
REMARK    1  A    between atoms: S_1  and  C_6 
REMARK    2  A    between atoms: S_1  and  C_14 
REMARK       I    between atoms: N_3  and  C_8 
REMARK    3  A    between atoms: N_3  and  C_9 
REMARK    4  A    between atoms: C_6  and  C_7 
REMARK    5  A    between atoms: C_6  and  C_8 
ROOT
HETATM    1  O   UNK     0      55.957  49.587  65.245  0.00  0.00    -0.272 OA
HETATM    2  N   UNK     0      55.256  51.208  66.793  0.00  0.00    -0.325 N 
HETATM    3  C   UNK     0      55.287  49.933  66.215  0.00  0.00     0.236 C 
HETATM    4  H   UNK     0      54.511  51.362  67.465  0.00  0.00     0.169 HD
ENDROOT
BRANCH   2   5
HETATM    5  C   UNK     0      55.985  52.344  66.419  0.00  0.00     0.045 A 
HETATM    6  C   UNK     0      55.434  53.337  65.591  0.00  0.00     0.001 A 
HETATM    7  C   UNK     0      56.220  54.462  65.245  0.00  0.00    -0.024 A 
HETATM    8  C   UNK     0      54.123  53.237  65.100  0.00  0.00     0.014 A 
HETATM    9  C   UNK     0      57.531  54.562  65.737  0.00  0.00     0.012 A 
HETATM   10  C   UNK     0      55.669  55.455  64.417  0.00  0.00     0.012 A 
HETATM   11  C   UNK     0      58.062  53.567  66.558  0.00  0.00     0.003 A 
HETATM   12  C   UNK     0      57.290  52.460  66.898  0.00  0.00     0.030 A 
HETATM   13  C   UNK     0      54.364  55.339  63.938  0.00  0.00     0.001 A 
HETATM   14  C   UNK     0      53.593  54.232  64.278  0.00  0.00     0.001 A 
ENDBRANCH   2   5
BRANCH   3  15
HETATM   15  C   UNK     0      54.339  48.962  66.917  0.00  0.00     0.147 C 
BRANCH  15  16
HETATM   16  S   UNK     0      55.277  48.229  68.307  0.00  0.00    -0.077 SA
BRANCH  16  17
HETATM   17  C   UNK     0      54.791  49.303  69.650  0.00  0.00     0.168 A 
HETATM   18  N   UNK     0      54.096  48.823  70.687  0.00  0.00    -0.339 N 
HETATM   19  C   UNK     0      53.895  49.892  71.515  0.00  0.00     0.112 A 
HETATM   20  C   UNK     0      53.624  47.481  70.946  0.00  0.00     0.158 C 
HETATM   21  C   UNK     0      54.507  50.948  70.881  0.00  0.00     0.136 A 
HETATM   22  N   UNK     0      55.071  50.553  69.694  0.00  0.00    -0.235 NA
ENDBRANCH  16  17
ENDBRANCH  15  16
BRANCH  15  23
HETATM   23  C   UNK     0      53.083  49.655  67.459  0.00  0.00     0.021 C 
HETATM   24  C   UNK     0      52.001  48.653  67.845  0.00  0.00     0.006 C 
ENDBRANCH  15  23
ENDBRANCH   3  15
TORSDOF 5
ENDMDL
MODEL 8
REMARK VINA RESULT:      -6.4     23.159     25.139
REMARK  5 active torsions:
REMARK  status: ('A' for Active; 'I' for Inactive)
REMARK    1  A    between atoms: S_1  and  C_6 
REMARK    2  A    between atoms: S_1  and  C_14 
REMARK       I    between atoms: N_3  and  C_8 
REMARK    3  A    between atoms: N_3  and  C_9 
REMARK    4  A    between atoms: C_6  and  C_7 
REMARK    5  A    between atoms: C_6  and  C_8 
ROOT
HETATM    1  O   UNK     0      52.329  53.043  56.543  0.00  0.00    -0.272 OA
HETATM    2  N   UNK     0      54.538  53.725  56.964  0.00  0.00    -0.325 N 
HETATM    3  C   UNK     0      53.426  53.442  56.160  0.00  0.00     0.236 C 
HETATM    4  H   UNK     0      55.410  53.863  56.464  0.00  0.00     0.169 HD
ENDROOT
BRANCH   2   5
HETATM    5  C   UNK     0      54.638  53.641  58.358  0.00  0.00     0.045 A 
HETATM    6  C   UNK     0      54.897  52.424  59.009  0.00  0.00     0.001 A 
HETATM    7  C   UNK     0      54.986  52.401  60.422  0.00  0.00    -0.024 A 
HETATM    8  C   UNK     0      55.069  51.231  58.291  0.00  0.00     0.014 A 
HETATM    9  C   UNK     0      54.814  53.595  61.141  0.00  0.00     0.012 A 
HETATM   10  C   UNK     0      55.245  51.183  61.073  0.00  0.00     0.012 A 
HETATM   11  C   UNK     0      54.558  54.795  60.477  0.00  0.00     0.003 A 
HETATM   12  C   UNK     0      54.470  54.818  59.089  0.00  0.00     0.030 A 
HETATM   13  C   UNK     0      55.414  50.007  60.342  0.00  0.00     0.001 A 
HETATM   14  C   UNK     0      55.325  50.030  58.954  0.00  0.00     0.001 A 
ENDBRANCH   2   5
BRANCH   3  15
HETATM   15  C   UNK     0      53.722  53.658  54.676  0.00  0.00     0.147 C 
BRANCH  15  16
HETATM   16  S   UNK     0      55.438  53.088  54.398  0.00  0.00    -0.077 SA
BRANCH  16  17
HETATM   17  C   UNK     0      56.140  54.508  53.572  0.00  0.00     0.168 A 
HETATM   18  N   UNK     0      56.923  55.364  54.237  0.00  0.00    -0.339 N 
HETATM   19  C   UNK     0      57.281  56.315  53.324  0.00  0.00     0.112 A 
HETATM   20  C   UNK     0      57.345  55.351  55.621  0.00  0.00     0.158 C 
HETATM   21  C   UNK     0      56.661  55.932  52.157  0.00  0.00     0.136 A 
HETATM   22  N   UNK     0      55.938  54.780  52.335  0.00  0.00    -0.235 NA
ENDBRANCH  16  17
ENDBRANCH  15  16
BRANCH  15  23
HETATM   23  C   UNK     0      52.770  52.874  53.765  0.00  0.00     0.021 C 
HETATM   24  C   UNK     0      53.235  51.437  53.558  0.00  0.00     0.006 C 
ENDBRANCH  15  23
ENDBRANCH   3  15
TORSDOF 5
ENDMDL
MODEL 9
REMARK VINA RESULT:      -6.3     23.472     25.137
REMARK  5 active torsions:
REMARK  status: ('A' for Active; 'I' for Inactive)
REMARK    1  A    between atoms: S_1  and  C_6 
REMARK    2  A    between atoms: S_1  and  C_14 
REMARK       I    between atoms: N_3  and  C_8 
REMARK    3  A    between atoms: N_3  and  C_9 
REMARK    4  A    between atoms: C_6  and  C_7 
REMARK    5  A    between atoms: C_6  and  C_8 
ROOT
HETATM    1  O   UNK     0      54.334  50.031  60.724  0.00  0.00    -0.272 OA
HETATM    2  N   UNK     0      55.894  51.409  61.812  0.00  0.00    -0.325 N 
HETATM    3  C   UNK     0      55.226  50.874  60.703  0.00  0.00     0.236 C 
HETATM    4  H   UNK     0      56.725  51.951  61.598  0.00  0.00     0.169 HD
ENDROOT
BRANCH   2   5
HETATM    5  C   UNK     0      55.681  51.127  63.167  0.00  0.00     0.045 A 
HETATM    6  C   UNK     0      55.153  52.085  64.048  0.00  0.00     0.001 A 
HETATM    7  C   UNK     0      54.961  51.743  65.408  0.00  0.00    -0.024 A 
HETATM    8  C   UNK     0      54.811  53.374  63.610  0.00  0.00     0.014 A 
HETATM    9  C   UNK     0      55.302  50.453  65.846  0.00  0.00     0.012 A 
HETATM   10  C   UNK     0      54.433  52.701  66.289  0.00  0.00     0.012 A 
HETATM   11  C   UNK     0      55.826  49.514  64.957  0.00  0.00     0.003 A 
HETATM   12  C   UNK     0      56.015  49.851  63.620  0.00  0.00     0.030 A 
HETATM   13  C   UNK     0      54.098  53.977  65.836  0.00  0.00     0.001 A 
HETATM   14  C   UNK     0      54.288  54.314  64.499  0.00  0.00     0.001 A 
ENDBRANCH   2   5
BRANCH   3  15
HETATM   15  C   UNK     0      55.756  51.443  59.387  0.00  0.00     0.147 C 
BRANCH  15  16
HETATM   16  S   UNK     0      55.388  53.235  59.405  0.00  0.00    -0.077 SA
BRANCH  16  17
HETATM   17  C   UNK     0      54.754  53.470  57.752  0.00  0.00     0.168 A 
HETATM   18  N   UNK     0      55.578  53.778  56.745  0.00  0.00    -0.339 N 
HETATM   19  C   UNK     0      54.779  53.884  55.641  0.00  0.00     0.112 A 
HETATM   20  C   UNK     0      57.011  53.973  56.746  0.00  0.00     0.158 C 
HETATM   21  C   UNK     0      53.509  53.621  56.099  0.00  0.00     0.136 A 
HETATM   22  N   UNK     0      53.513  53.360  57.447  0.00  0.00    -0.235 NA
ENDBRANCH  16  17
ENDBRANCH  15  16
BRANCH  15  23
HETATM   23  C   UNK     0      57.266  51.234  59.221  0.00  0.00     0.021 C 
HETATM   24  C   UNK     0      57.623  49.762  59.048  0.00  0.00     0.006 C 
ENDBRANCH  15  23
ENDBRANCH   3  15
TORSDOF 5
ENDMDL
