MODEL 1
REMARK VINA RESULT:      -8.8      0.000      0.000
REMARK  9 active torsions:
REMARK  status: ('A' for Active; 'I' for Inactive)
REMARK    1  A    between atoms: N_4  and  C_8 
REMARK       I    between atoms: N_4  and  C_13 
REMARK    2  A    between atoms: N_5  and  C_14 
REMARK    3  A    between atoms: N_5  and  C_15 
REMARK       I    between atoms: N_5  and  C_16 
REMARK       I    between atoms: N_6  and  C_27 
REMARK    4  A    between atoms: N_6  and  C_28 
REMARK    5  A    between atoms: C_13  and  C_14 
REMARK    6  A    between atoms: C_16  and  C_17 
REMARK    7  A    between atoms: C_17  and  C_19 
REMARK    8  A    between atoms: C_19  and  C_22 
REMARK    9  A    between atoms: C_22  and  C_27 
ROOT
HETATM    1  O   UNK     0      70.902  71.420  65.216  0.00  0.00    -0.273 OA
HETATM    2  N   UNK     0      70.570  73.734  65.344  0.00  0.00    -0.309 N 
HETATM    3  C   UNK     0      71.272  72.537  65.583  0.00  0.00     0.224 C 
ENDROOT
BRANCH   2   4
HETATM    4  C   UNK     0      69.296  73.733  64.612  0.00  0.00     0.235 C 
BRANCH   4   5
HETATM    5  C   UNK     0      68.149  73.844  65.594  0.00  0.00     0.236 C 
HETATM    6  O   UNK     0      67.964  73.043  66.506  0.00  0.00    -0.272 OA
HETATM    7  N   UNK     0      67.327  74.921  65.294  0.00  0.00    -0.355 N 
HETATM    8  H   UNK     0      67.591  75.545  64.536  0.00  0.00     0.162 HD
BRANCH   7   9
HETATM    9  C   UNK     0      66.130  75.234  66.036  0.00  0.00     0.084 C 
HETATM   10  C   UNK     0      65.644  76.651  65.759  0.00  0.00     0.025 C 
HETATM   11  C   UNK     0      64.831  76.546  64.470  0.00  0.00     0.002 C 
HETATM   12  C   UNK     0      64.422  75.079  64.339  0.00  0.00     0.002 C 
HETATM   13  C   UNK     0      64.951  74.379  65.589  0.00  0.00     0.025 C 
ENDBRANCH   7   9
ENDBRANCH   4   5
ENDBRANCH   2   4
BRANCH   2  14
HETATM   14  C   UNK     0      71.113  74.989  65.829  0.00  0.00     0.044 A 
HETATM   15  C   UNK     0      71.896  75.796  65.003  0.00  0.00    -0.035 A 
HETATM   16  C   UNK     0      72.409  76.999  65.486  0.00  0.00     0.009 A 
HETATM   17  C   UNK     0      72.201  75.395  63.596  0.00  0.00     0.050 C 
HETATM   18  C   UNK     0      72.138  77.396  66.797  0.00  0.00     0.007 A 
HETATM   19  C   UNK     0      71.355  76.589  67.622  0.00  0.00    -0.060 A 
HETATM   20  C   UNK     0      70.842  75.386  67.138  0.00  0.00     0.037 A 
HETATM   21  C   UNK     0      71.067  77.014  69.022  0.00  0.00     0.048 C 
ENDBRANCH   2  14
BRANCH   3  22
HETATM   22  C   UNK     0      72.576  72.684  66.363  0.00  0.00     0.104 C 
BRANCH  22  23
HETATM   23  C   UNK     0      73.812  72.766  65.462  0.00  0.00     0.019 C 
BRANCH  23  24
HETATM   24  C   UNK     0      74.937  73.653  66.004  0.00  0.00     0.103 C 
BRANCH  24  25
HETATM   25  C   UNK     0      76.202  72.862  66.292  0.00  0.00     0.223 C 
HETATM   26  O   UNK     0      77.306  73.362  66.100  0.00  0.00    -0.273 OA
HETATM   27  N   UNK     0      75.916  71.575  66.734  0.00  0.00    -0.312 N 
HETATM   28  H   UNK     0      74.941  71.306  66.841  0.00  0.00     0.170 HD
BRANCH  27  29
HETATM   29  C   UNK     0      76.834  70.551  67.063  0.00  0.00     0.129 A 
HETATM   30  N   UNK     0      77.689  70.757  68.090  0.00  0.00    -0.243 NA
HETATM   31  C   UNK     0      78.548  69.750  68.366  0.00  0.00     0.119 A 
HETATM   32  C   UNK     0      78.591  68.553  67.669  0.00  0.00     0.019 A 
HETATM   33  C   UNK     0      77.696  68.379  66.620  0.00  0.00     0.005 A 
HETATM   34  C   UNK     0      76.797  69.392  66.305  0.00  0.00     0.050 A 
ENDBRANCH  27  29
ENDBRANCH  24  25
ENDBRANCH  23  24
ENDBRANCH  22  23
ENDBRANCH   3  22
TORSDOF 9
ENDMDL
MODEL 2
REMARK VINA RESULT:      -8.5      4.686     11.920
REMARK  9 active torsions:
REMARK  status: ('A' for Active; 'I' for Inactive)
REMARK    1  A    between atoms: N_4  and  C_8 
REMARK       I    between atoms: N_4  and  C_13 
REMARK    2  A    between atoms: N_5  and  C_14 
REMARK    3  A    between atoms: N_5  and  C_15 
REMARK       I    between atoms: N_5  and  C_16 
REMARK       I    between atoms: N_6  and  C_27 
REMARK    4  A    between atoms: N_6  and  C_28 
REMARK    5  A    between atoms: C_13  and  C_14 
REMARK    6  A    between atoms: C_16  and  C_17 
REMARK    7  A    between atoms: C_17  and  C_19 
REMARK    8  A    between atoms: C_19  and  C_22 
REMARK    9  A    between atoms: C_22  and  C_27 
ROOT
HETATM    1  O   UNK     0      66.898  76.237  66.705  0.00  0.00    -0.273 OA
HETATM    2  N   UNK     0      66.134  74.258  65.712  0.00  0.00    -0.309 N 
HETATM    3  C   UNK     0      66.102  75.641  65.976  0.00  0.00     0.224 C 
ENDROOT
BRANCH   2   4
HETATM    4  C   UNK     0      67.160  73.396  66.313  0.00  0.00     0.235 C 
BRANCH   4   5
HETATM    5  C   UNK     0      68.022  72.798  65.221  0.00  0.00     0.236 C 
HETATM    6  O   UNK     0      67.870  71.657  64.793  0.00  0.00    -0.272 OA
HETATM    7  N   UNK     0      69.015  73.680  64.818  0.00  0.00    -0.355 N 
HETATM    8  H   UNK     0      69.030  74.617  65.213  0.00  0.00     0.162 HD
BRANCH   7   9
HETATM    9  C   UNK     0      70.009  73.352  63.826  0.00  0.00     0.084 C 
HETATM   10  C   UNK     0      70.380  74.559  62.974  0.00  0.00     0.025 C 
HETATM   11  C   UNK     0      71.427  75.313  63.790  0.00  0.00     0.002 C 
HETATM   12  C   UNK     0      72.012  74.302  64.777  0.00  0.00     0.002 C 
HETATM   13  C   UNK     0      71.337  72.969  64.466  0.00  0.00     0.025 C 
ENDBRANCH   7   9
ENDBRANCH   4   5
ENDBRANCH   2   4
BRANCH   2  14
HETATM   14  C   UNK     0      65.137  73.676  64.834  0.00  0.00     0.044 A 
HETATM   15  C   UNK     0      65.232  73.820  63.450  0.00  0.00    -0.035 A 
HETATM   16  C   UNK     0      64.264  73.253  62.621  0.00  0.00     0.009 A 
HETATM   17  C   UNK     0      66.360  74.578  62.827  0.00  0.00     0.050 C 
HETATM   18  C   UNK     0      63.201  72.539  63.177  0.00  0.00     0.007 A 
HETATM   19  C   UNK     0      63.107  72.394  64.562  0.00  0.00    -0.060 A 
HETATM   20  C   UNK     0      64.075  72.963  65.390  0.00  0.00     0.037 A 
HETATM   21  C   UNK     0      61.971  71.633  65.155  0.00  0.00     0.048 C 
ENDBRANCH   2  14
BRANCH   3  22
HETATM   22  C   UNK     0      64.976  76.414  65.294  0.00  0.00     0.104 C 
BRANCH  22  23
HETATM   23  C   UNK     0      63.653  76.360  66.065  0.00  0.00     0.019 C 
BRANCH  23  24
HETATM   24  C   UNK     0      62.405  76.277  65.181  0.00  0.00     0.103 C 
BRANCH  24  25
HETATM   25  C   UNK     0      61.863  77.652  64.824  0.00  0.00     0.223 C 
HETATM   26  O   UNK     0      61.335  78.353  65.681  0.00  0.00    -0.273 OA
HETATM   27  N   UNK     0      62.021  77.933  63.472  0.00  0.00    -0.312 N 
HETATM   28  H   UNK     0      62.481  77.242  62.885  0.00  0.00     0.170 HD
BRANCH  27  29
HETATM   29  C   UNK     0      61.609  79.095  62.778  0.00  0.00     0.129 A 
HETATM   30  N   UNK     0      60.523  79.018  61.978  0.00  0.00    -0.243 NA
HETATM   31  C   UNK     0      60.169  80.154  61.336  0.00  0.00     0.119 A 
HETATM   32  C   UNK     0      60.846  81.356  61.456  0.00  0.00     0.019 A 
HETATM   33  C   UNK     0      61.959  81.396  62.287  0.00  0.00     0.005 A 
HETATM   34  C   UNK     0      62.355  80.248  62.965  0.00  0.00     0.050 A 
ENDBRANCH  27  29
ENDBRANCH  24  25
ENDBRANCH  23  24
ENDBRANCH  22  23
ENDBRANCH   3  22
TORSDOF 9
ENDMDL
MODEL 3
REMARK VINA RESULT:      -8.5      4.360      6.990
REMARK  9 active torsions:
REMARK  status: ('A' for Active; 'I' for Inactive)
REMARK    1  A    between atoms: N_4  and  C_8 
REMARK       I    between atoms: N_4  and  C_13 
REMARK    2  A    between atoms: N_5  and  C_14 
REMARK    3  A    between atoms: N_5  and  C_15 
REMARK       I    between atoms: N_5  and  C_16 
REMARK       I    between atoms: N_6  and  C_27 
REMARK    4  A    between atoms: N_6  and  C_28 
REMARK    5  A    between atoms: C_13  and  C_14 
REMARK    6  A    between atoms: C_16  and  C_17 
REMARK    7  A    between atoms: C_17  and  C_19 
REMARK    8  A    between atoms: C_19  and  C_22 
REMARK    9  A    between atoms: C_22  and  C_27 
ROOT
HETATM    1  O   UNK     0      68.151  74.391  66.082  0.00  0.00    -0.273 OA
HETATM    2  N   UNK     0      66.098  74.538  64.965  0.00  0.00    -0.309 N 
HETATM    3  C   UNK     0      67.253  73.872  65.415  0.00  0.00     0.224 C 
ENDROOT
BRANCH   2   4
HETATM    4  C   UNK     0      65.875  75.958  65.270  0.00  0.00     0.235 C 
BRANCH   4   5
HETATM    5  C   UNK     0      64.600  76.109  66.073  0.00  0.00     0.236 C 
HETATM    6  O   UNK     0      64.473  75.688  67.219  0.00  0.00    -0.272 OA
HETATM    7  N   UNK     0      63.604  76.727  65.331  0.00  0.00    -0.355 N 
HETATM    8  H   UNK     0      63.825  77.071  64.400  0.00  0.00     0.162 HD
BRANCH   7   9
HETATM    9  C   UNK     0      62.270  76.955  65.832  0.00  0.00     0.084 C 
HETATM   10  C   UNK     0      61.542  78.033  65.039  0.00  0.00     0.025 C 
HETATM   11  C   UNK     0      60.973  77.312  63.819  0.00  0.00     0.002 C 
HETATM   12  C   UNK     0      60.909  75.830  64.188  0.00  0.00     0.002 C 
HETATM   13  C   UNK     0      61.380  75.734  65.637  0.00  0.00     0.025 C 
ENDBRANCH   7   9
ENDBRANCH   4   5
ENDBRANCH   2   4
BRANCH   2  14
HETATM   14  C   UNK     0      65.113  73.813  64.186  0.00  0.00     0.044 A 
HETATM   15  C   UNK     0      65.122  73.868  62.792  0.00  0.00    -0.035 A 
HETATM   16  C   UNK     0      64.167  73.163  62.060  0.00  0.00     0.009 A 
HETATM   17  C   UNK     0      66.144  74.674  62.057  0.00  0.00     0.050 C 
HETATM   18  C   UNK     0      63.203  72.401  62.721  0.00  0.00     0.007 A 
HETATM   19  C   UNK     0      63.194  72.347  64.116  0.00  0.00    -0.060 A 
HETATM   20  C   UNK     0      64.149  73.052  64.848  0.00  0.00     0.037 A 
HETATM   21  C   UNK     0      62.163  71.534  64.822  0.00  0.00     0.048 C 
ENDBRANCH   2  14
BRANCH   3  22
HETATM   22  C   UNK     0      67.361  72.402  65.018  0.00  0.00     0.104 C 
BRANCH  22  23
HETATM   23  C   UNK     0      68.694  72.054  64.345  0.00  0.00     0.019 C 
BRANCH  23  24
HETATM   24  C   UNK     0      68.821  72.538  62.898  0.00  0.00     0.103 C 
BRANCH  24  25
HETATM   25  C   UNK     0      69.839  73.657  62.755  0.00  0.00     0.223 C 
HETATM   26  O   UNK     0      69.981  74.236  61.683  0.00  0.00    -0.273 OA
HETATM   27  N   UNK     0      70.546  73.864  63.935  0.00  0.00    -0.312 N 
HETATM   28  H   UNK     0      70.311  73.297  64.745  0.00  0.00     0.170 HD
BRANCH  27  29
HETATM   29  C   UNK     0      71.588  74.792  64.165  0.00  0.00     0.129 A 
HETATM   30  N   UNK     0      71.279  76.107  64.228  0.00  0.00    -0.243 NA
HETATM   31  C   UNK     0      72.309  76.955  64.449  0.00  0.00     0.119 A 
HETATM   32  C   UNK     0      73.624  76.553  64.611  0.00  0.00     0.019 A 
HETATM   33  C   UNK     0      73.902  75.193  64.540  0.00  0.00     0.005 A 
HETATM   34  C   UNK     0      72.870  74.289  64.313  0.00  0.00     0.050 A 
ENDBRANCH  27  29
ENDBRANCH  24  25
ENDBRANCH  23  24
ENDBRANCH  22  23
ENDBRANCH   3  22
TORSDOF 9
ENDMDL
MODEL 4
REMARK VINA RESULT:      -8.4      3.320      6.148
REMARK  9 active torsions:
REMARK  status: ('A' for Active; 'I' for Inactive)
REMARK    1  A    between atoms: N_4  and  C_8 
REMARK       I    between atoms: N_4  and  C_13 
REMARK    2  A    between atoms: N_5  and  C_14 
REMARK    3  A    between atoms: N_5  and  C_15 
REMARK       I    between atoms: N_5  and  C_16 
REMARK       I    between atoms: N_6  and  C_27 
REMARK    4  A    between atoms: N_6  and  C_28 
REMARK    5  A    between atoms: C_13  and  C_14 
REMARK    6  A    between atoms: C_16  and  C_17 
REMARK    7  A    between atoms: C_17  and  C_19 
REMARK    8  A    between atoms: C_19  and  C_22 
REMARK    9  A    between atoms: C_22  and  C_27 
ROOT
HETATM    1  O   UNK     0      68.329  73.426  66.334  0.00  0.00    -0.273 OA
HETATM    2  N   UNK     0      66.253  73.992  65.410  0.00  0.00    -0.309 N 
HETATM    3  C   UNK     0      67.364  73.153  65.617  0.00  0.00     0.224 C 
ENDROOT
BRANCH   2   4
HETATM    4  C   UNK     0      66.164  75.305  66.062  0.00  0.00     0.235 C 
BRANCH   4   5
HETATM    5  C   UNK     0      64.802  75.460  66.706  0.00  0.00     0.236 C 
HETATM    6  O   UNK     0      64.503  74.943  67.778  0.00  0.00    -0.272 OA
HETATM    7  N   UNK     0      63.946  76.207  65.909  0.00  0.00    -0.355 N 
HETATM    8  H   UNK     0      64.307  76.622  65.054  0.00  0.00     0.162 HD
BRANCH   7   9
HETATM    9  C   UNK     0      62.571  76.470  66.256  0.00  0.00     0.084 C 
HETATM   10  C   UNK     0      61.997  77.635  65.459  0.00  0.00     0.025 C 
HETATM   11  C   UNK     0      61.558  77.026  64.129  0.00  0.00     0.002 C 
HETATM   12  C   UNK     0      61.384  75.528  64.379  0.00  0.00     0.002 C 
HETATM   13  C   UNK     0      61.661  75.312  65.864  0.00  0.00     0.025 C 
ENDBRANCH   7   9
ENDBRANCH   4   5
ENDBRANCH   2   4
BRANCH   2  14
HETATM   14  C   UNK     0      65.179  73.553  64.540  0.00  0.00     0.044 A 
HETATM   15  C   UNK     0      65.097  74.004  63.222  0.00  0.00    -0.035 A 
HETATM   16  C   UNK     0      64.057  73.571  62.400  0.00  0.00     0.009 A 
HETATM   17  C   UNK     0      66.110  74.952  62.666  0.00  0.00     0.050 C 
HETATM   18  C   UNK     0      63.099  72.686  62.895  0.00  0.00     0.007 A 
HETATM   19  C   UNK     0      63.181  72.235  64.213  0.00  0.00    -0.060 A 
HETATM   20  C   UNK     0      64.221  72.668  65.035  0.00  0.00     0.037 A 
HETATM   21  C   UNK     0      62.156  71.289  64.742  0.00  0.00     0.048 C 
ENDBRANCH   2  14
BRANCH   3  22
HETATM   22  C   UNK     0      67.331  71.821  64.871  0.00  0.00     0.104 C 
BRANCH  22  23
HETATM   23  C   UNK     0      67.955  71.896  63.473  0.00  0.00     0.019 C 
BRANCH  23  24
HETATM   24  C   UNK     0      69.101  72.904  63.342  0.00  0.00     0.103 C 
BRANCH  24  25
HETATM   25  C   UNK     0      70.448  72.287  63.683  0.00  0.00     0.223 C 
HETATM   26  O   UNK     0      70.813  71.251  63.137  0.00  0.00    -0.273 OA
HETATM   27  N   UNK     0      71.115  73.014  64.662  0.00  0.00    -0.312 N 
HETATM   28  H   UNK     0      70.676  73.858  65.021  0.00  0.00     0.170 HD
BRANCH  27  29
HETATM   29  C   UNK     0      72.368  72.724  65.250  0.00  0.00     0.129 A 
HETATM   30  N   UNK     0      72.429  71.768  66.203  0.00  0.00    -0.243 NA
HETATM   31  C   UNK     0      73.648  71.528  66.735  0.00  0.00     0.119 A 
HETATM   32  C   UNK     0      74.804  72.193  66.359  0.00  0.00     0.019 A 
HETATM   33  C   UNK     0      74.701  73.170  65.376  0.00  0.00     0.005 A 
HETATM   34  C   UNK     0      73.464  73.447  64.805  0.00  0.00     0.050 A 
ENDBRANCH  27  29
ENDBRANCH  24  25
ENDBRANCH  23  24
ENDBRANCH  22  23
ENDBRANCH   3  22
TORSDOF 9
ENDMDL
MODEL 5
REMARK VINA RESULT:      -8.3      3.228      8.854
REMARK  9 active torsions:
REMARK  status: ('A' for Active; 'I' for Inactive)
REMARK    1  A    between atoms: N_4  and  C_8 
REMARK       I    between atoms: N_4  and  C_13 
REMARK    2  A    between atoms: N_5  and  C_14 
REMARK    3  A    between atoms: N_5  and  C_15 
REMARK       I    between atoms: N_5  and  C_16 
REMARK       I    between atoms: N_6  and  C_27 
REMARK    4  A    between atoms: N_6  and  C_28 
REMARK    5  A    between atoms: C_13  and  C_14 
REMARK    6  A    between atoms: C_16  and  C_17 
REMARK    7  A    between atoms: C_17  and  C_19 
REMARK    8  A    between atoms: C_19  and  C_22 
REMARK    9  A    between atoms: C_22  and  C_27 
ROOT
HETATM    1  O   UNK     0      72.473  72.403  66.137  0.00  0.00    -0.273 OA
HETATM    2  N   UNK     0      74.762  72.662  65.714  0.00  0.00    -0.309 N 
HETATM    3  C   UNK     0      73.394  72.757  65.397  0.00  0.00     0.224 C 
ENDROOT
BRANCH   2   4
HETATM    4  C   UNK     0      75.205  72.109  67.001  0.00  0.00     0.235 C 
BRANCH   4   5
HETATM    5  C   UNK     0      75.378  70.611  66.877  0.00  0.00     0.236 C 
HETATM    6  O   UNK     0      74.443  69.818  66.936  0.00  0.00    -0.272 OA
HETATM    7  N   UNK     0      76.715  70.264  66.740  0.00  0.00    -0.355 N 
HETATM    8  H   UNK     0      77.409  71.003  66.665  0.00  0.00     0.162 HD
BRANCH   7   9
HETATM    9  C   UNK     0      77.173  68.899  66.650  0.00  0.00     0.084 C 
HETATM   10  C   UNK     0      76.806  68.263  65.315  0.00  0.00     0.025 C 
HETATM   11  C   UNK     0      77.902  68.708  64.349  0.00  0.00     0.002 C 
HETATM   12  C   UNK     0      79.100  69.103  65.213  0.00  0.00     0.002 C 
HETATM   13  C   UNK     0      78.695  68.816  66.656  0.00  0.00     0.025 C 
ENDBRANCH   7   9
ENDBRANCH   4   5
ENDBRANCH   2   4
BRANCH   2  14
HETATM   14  C   UNK     0      75.751  73.114  64.754  0.00  0.00     0.044 A 
HETATM   15  C   UNK     0      76.102  74.462  64.671  0.00  0.00    -0.035 A 
HETATM   16  C   UNK     0      77.055  74.878  63.742  0.00  0.00     0.009 A 
HETATM   17  C   UNK     0      75.474  75.481  65.565  0.00  0.00     0.050 C 
HETATM   18  C   UNK     0      77.658  73.947  62.895  0.00  0.00     0.007 A 
HETATM   19  C   UNK     0      77.306  72.599  62.979  0.00  0.00    -0.060 A 
HETATM   20  C   UNK     0      76.353  72.183  63.908  0.00  0.00     0.037 A 
HETATM   21  C   UNK     0      77.950  71.604  62.073  0.00  0.00     0.048 C 
ENDBRANCH   2  14
BRANCH   3  22
HETATM   22  C   UNK     0      73.076  73.341  64.023  0.00  0.00     0.104 C 
BRANCH  22  23
HETATM   23  C   UNK     0      71.924  74.351  64.047  0.00  0.00     0.019 C 
BRANCH  23  24
HETATM   24  C   UNK     0      72.327  75.784  63.685  0.00  0.00     0.103 C 
BRANCH  24  25
HETATM   25  C   UNK     0      72.075  76.754  64.828  0.00  0.00     0.223 C 
HETATM   26  O   UNK     0      71.947  77.954  64.608  0.00  0.00    -0.273 OA
HETATM   27  N   UNK     0      72.058  76.108  66.059  0.00  0.00    -0.312 N 
HETATM   28  H   UNK     0      72.183  75.099  66.077  0.00  0.00     0.170 HD
BRANCH  27  29
HETATM   29  C   UNK     0      71.886  76.689  67.337  0.00  0.00     0.129 A 
HETATM   30  N   UNK     0      72.975  77.157  67.985  0.00  0.00    -0.243 NA
HETATM   31  C   UNK     0      72.760  77.703  69.203  0.00  0.00     0.119 A 
HETATM   32  C   UNK     0      71.514  77.803  69.799  0.00  0.00     0.019 A 
HETATM   33  C   UNK     0      70.417  77.311  69.102  0.00  0.00     0.005 A 
HETATM   34  C   UNK     0      70.598  76.742  67.846  0.00  0.00     0.050 A 
ENDBRANCH  27  29
ENDBRANCH  24  25
ENDBRANCH  23  24
ENDBRANCH  22  23
ENDBRANCH   3  22
TORSDOF 9
ENDMDL
MODEL 6
REMARK VINA RESULT:      -8.3      2.628      9.242
REMARK  9 active torsions:
REMARK  status: ('A' for Active; 'I' for Inactive)
REMARK    1  A    between atoms: N_4  and  C_8 
REMARK       I    between atoms: N_4  and  C_13 
REMARK    2  A    between atoms: N_5  and  C_14 
REMARK    3  A    between atoms: N_5  and  C_15 
REMARK       I    between atoms: N_5  and  C_16 
REMARK       I    between atoms: N_6  and  C_27 
REMARK    4  A    between atoms: N_6  and  C_28 
REMARK    5  A    between atoms: C_13  and  C_14 
REMARK    6  A    between atoms: C_16  and  C_17 
REMARK    7  A    between atoms: C_17  and  C_19 
REMARK    8  A    between atoms: C_19  and  C_22 
REMARK    9  A    between atoms: C_22  and  C_27 
ROOT
HETATM    1  O   UNK     0      73.762  72.363  63.832  0.00  0.00    -0.273 OA
HETATM    2  N   UNK     0      75.746  72.807  64.994  0.00  0.00    -0.309 N 
HETATM    3  C   UNK     0      74.367  72.541  64.891  0.00  0.00     0.224 C 
ENDROOT
BRANCH   2   4
HETATM    4  C   UNK     0      76.592  72.895  63.797  0.00  0.00     0.235 C 
BRANCH   4   5
HETATM    5  C   UNK     0      77.658  71.822  63.851  0.00  0.00     0.236 C 
HETATM    6  O   UNK     0      78.860  72.064  63.780  0.00  0.00    -0.272 OA
HETATM    7  N   UNK     0      77.100  70.555  63.938  0.00  0.00    -0.355 N 
HETATM    8  H   UNK     0      76.091  70.467  64.027  0.00  0.00     0.162 HD
BRANCH   7   9
HETATM    9  C   UNK     0      77.884  69.344  63.956  0.00  0.00     0.084 C 
HETATM   10  C   UNK     0      79.045  69.433  64.938  0.00  0.00     0.025 C 
HETATM   11  C   UNK     0      78.443  69.078  66.296  0.00  0.00     0.002 C 
HETATM   12  C   UNK     0      77.160  68.299  66.006  0.00  0.00     0.002 C 
HETATM   13  C   UNK     0      77.081  68.163  64.488  0.00  0.00     0.025 C 
ENDBRANCH   7   9
ENDBRANCH   4   5
ENDBRANCH   2   4
BRANCH   2  14
HETATM   14  C   UNK     0      76.340  72.999  66.303  0.00  0.00     0.044 A 
HETATM   15  C   UNK     0      76.623  74.280  66.780  0.00  0.00    -0.035 A 
HETATM   16  C   UNK     0      77.194  74.444  68.041  0.00  0.00     0.009 A 
HETATM   17  C   UNK     0      76.324  75.493  65.959  0.00  0.00     0.050 C 
HETATM   18  C   UNK     0      77.482  73.328  68.828  0.00  0.00     0.007 A 
HETATM   19  C   UNK     0      77.199  72.048  68.351  0.00  0.00    -0.060 A 
HETATM   20  C   UNK     0      76.628  71.883  67.089  0.00  0.00     0.037 A 
HETATM   21  C   UNK     0      77.508  70.855  69.192  0.00  0.00     0.048 C 
ENDBRANCH   2  14
BRANCH   3  22
HETATM   22  C   UNK     0      73.607  72.488  66.214  0.00  0.00     0.104 C 
BRANCH  22  23
HETATM   23  C   UNK     0      72.599  73.630  66.378  0.00  0.00     0.019 C 
BRANCH  23  24
HETATM   24  C   UNK     0      72.874  74.853  65.498  0.00  0.00     0.103 C 
BRANCH  24  25
HETATM   25  C   UNK     0      71.696  75.187  64.598  0.00  0.00     0.223 C 
HETATM   26  O   UNK     0      71.510  76.340  64.220  0.00  0.00    -0.273 OA
HETATM   27  N   UNK     0      70.915  74.068  64.334  0.00  0.00    -0.312 N 
HETATM   28  H   UNK     0      71.203  73.175  64.725  0.00  0.00     0.170 HD
BRANCH  27  29
HETATM   29  C   UNK     0      69.729  74.005  63.567  0.00  0.00     0.129 A 
HETATM   30  N   UNK     0      69.831  73.988  62.220  0.00  0.00    -0.243 NA
HETATM   31  C   UNK     0      68.670  73.927  61.530  0.00  0.00     0.119 A 
HETATM   32  C   UNK     0      67.418  73.882  62.122  0.00  0.00     0.019 A 
HETATM   33  C   UNK     0      67.353  73.901  63.510  0.00  0.00     0.005 A 
HETATM   34  C   UNK     0      68.526  73.963  64.254  0.00  0.00     0.050 A 
ENDBRANCH  27  29
ENDBRANCH  24  25
ENDBRANCH  23  24
ENDBRANCH  22  23
ENDBRANCH   3  22
TORSDOF 9
ENDMDL
MODEL 7
REMARK VINA RESULT:      -8.3      2.136      2.688
REMARK  9 active torsions:
REMARK  status: ('A' for Active; 'I' for Inactive)
REMARK    1  A    between atoms: N_4  and  C_8 
REMARK       I    between atoms: N_4  and  C_13 
REMARK    2  A    between atoms: N_5  and  C_14 
REMARK    3  A    between atoms: N_5  and  C_15 
REMARK       I    between atoms: N_5  and  C_16 
REMARK       I    between atoms: N_6  and  C_27 
REMARK    4  A    between atoms: N_6  and  C_28 
REMARK    5  A    between atoms: C_13  and  C_14 
REMARK    6  A    between atoms: C_16  and  C_17 
REMARK    7  A    between atoms: C_17  and  C_19 
REMARK    8  A    between atoms: C_19  and  C_22 
REMARK    9  A    between atoms: C_22  and  C_27 
ROOT
HETATM    1  O   UNK     0      71.103  71.369  65.208  0.00  0.00    -0.273 OA
HETATM    2  N   UNK     0      70.736  73.679  65.319  0.00  0.00    -0.309 N 
HETATM    3  C   UNK     0      71.424  72.487  65.615  0.00  0.00     0.224 C 
ENDROOT
BRANCH   2   4
HETATM    4  C   UNK     0      69.538  73.670  64.469  0.00  0.00     0.235 C 
BRANCH   4   5
HETATM    5  C   UNK     0      68.300  73.603  65.338  0.00  0.00     0.236 C 
HETATM    6  O   UNK     0      68.259  72.992  66.403  0.00  0.00    -0.272 OA
HETATM    7  N   UNK     0      67.232  74.269  64.754  0.00  0.00    -0.355 N 
HETATM    8  H   UNK     0      67.384  74.775  63.885  0.00  0.00     0.162 HD
BRANCH   7   9
HETATM    9  C   UNK     0      65.916  74.323  65.342  0.00  0.00     0.084 C 
HETATM   10  C   UNK     0      65.820  75.395  66.421  0.00  0.00     0.025 C 
HETATM   11  C   UNK     0      65.548  76.694  65.665  0.00  0.00     0.002 C 
HETATM   12  C   UNK     0      64.976  76.289  64.306  0.00  0.00     0.002 C 
HETATM   13  C   UNK     0      64.866  74.766  64.331  0.00  0.00     0.025 C 
ENDBRANCH   7   9
ENDBRANCH   4   5
ENDBRANCH   2   4
BRANCH   2  14
HETATM   14  C   UNK     0      71.216  74.935  65.862  0.00  0.00     0.044 A 
HETATM   15  C   UNK     0      72.093  75.740  65.134  0.00  0.00    -0.035 A 
HETATM   16  C   UNK     0      72.544  76.945  65.672  0.00  0.00     0.009 A 
HETATM   17  C   UNK     0      72.565  75.336  63.774  0.00  0.00     0.050 C 
HETATM   18  C   UNK     0      72.118  77.346  66.939  0.00  0.00     0.007 A 
HETATM   19  C   UNK     0      71.241  76.541  67.667  0.00  0.00    -0.060 A 
HETATM   20  C   UNK     0      70.790  75.336  67.128  0.00  0.00     0.037 A 
HETATM   21  C   UNK     0      70.786  76.969  69.021  0.00  0.00     0.048 C 
ENDBRANCH   2  14
BRANCH   3  22
HETATM   22  C   UNK     0      72.646  72.641  66.517  0.00  0.00     0.104 C 
BRANCH  22  23
HETATM   23  C   UNK     0      73.971  72.617  65.749  0.00  0.00     0.019 C 
BRANCH  23  24
HETATM   24  C   UNK     0      75.046  73.555  66.304  0.00  0.00     0.103 C 
BRANCH  24  25
HETATM   25  C   UNK     0      76.387  73.361  65.616  0.00  0.00     0.223 C 
HETATM   26  O   UNK     0      77.434  73.538  66.231  0.00  0.00    -0.273 OA
HETATM   27  N   UNK     0      76.235  73.016  64.278  0.00  0.00    -0.312 N 
HETATM   28  H   UNK     0      75.293  72.908  63.911  0.00  0.00     0.170 HD
BRANCH  27  29
HETATM   29  C   UNK     0      77.253  72.791  63.323  0.00  0.00     0.129 A 
HETATM   30  N   UNK     0      77.985  73.845  62.898  0.00  0.00    -0.243 NA
HETATM   31  C   UNK     0      78.946  73.579  61.985  0.00  0.00     0.119 A 
HETATM   32  C   UNK     0      79.209  72.316  61.480  0.00  0.00     0.019 A 
HETATM   33  C   UNK     0      78.435  71.257  61.941  0.00  0.00     0.005 A 
HETATM   34  C   UNK     0      77.437  71.490  62.880  0.00  0.00     0.050 A 
ENDBRANCH  27  29
ENDBRANCH  24  25
ENDBRANCH  23  24
ENDBRANCH  22  23
ENDBRANCH   3  22
TORSDOF 9
ENDMDL
MODEL 8
REMARK VINA RESULT:      -8.3      3.048      5.568
REMARK  9 active torsions:
REMARK  status: ('A' for Active; 'I' for Inactive)
REMARK    1  A    between atoms: N_4  and  C_8 
REMARK       I    between atoms: N_4  and  C_13 
REMARK    2  A    between atoms: N_5  and  C_14 
REMARK    3  A    between atoms: N_5  and  C_15 
REMARK       I    between atoms: N_5  and  C_16 
REMARK       I    between atoms: N_6  and  C_27 
REMARK    4  A    between atoms: N_6  and  C_28 
REMARK    5  A    between atoms: C_13  and  C_14 
REMARK    6  A    between atoms: C_16  and  C_17 
REMARK    7  A    between atoms: C_17  and  C_19 
REMARK    8  A    between atoms: C_19  and  C_22 
REMARK    9  A    between atoms: C_22  and  C_27 
ROOT
HETATM    1  O   UNK     0      68.998  73.207  66.723  0.00  0.00    -0.273 OA
HETATM    2  N   UNK     0      66.758  73.544  66.128  0.00  0.00    -0.309 N 
HETATM    3  C   UNK     0      68.150  73.636  65.937  0.00  0.00     0.224 C 
ENDROOT
BRANCH   2   4
HETATM    4  C   UNK     0      66.199  72.903  67.326  0.00  0.00     0.235 C 
BRANCH   4   5
HETATM    5  C   UNK     0      64.879  73.556  67.680  0.00  0.00     0.236 C 
HETATM    6  O   UNK     0      64.794  74.575  68.358  0.00  0.00    -0.272 OA
HETATM    7  N   UNK     0      63.805  72.830  67.185  0.00  0.00    -0.355 N 
HETATM    8  H   UNK     0      63.988  72.016  66.602  0.00  0.00     0.162 HD
BRANCH   7   9
HETATM    9  C   UNK     0      62.429  73.196  67.415  0.00  0.00     0.084 C 
HETATM   10  C   UNK     0      62.042  74.458  66.654  0.00  0.00     0.025 C 
HETATM   11  C   UNK     0      61.692  73.979  65.247  0.00  0.00     0.002 C 
HETATM   12  C   UNK     0      61.365  72.491  65.368  0.00  0.00     0.002 C 
HETATM   13  C   UNK     0      61.469  72.155  66.854  0.00  0.00     0.025 C 
ENDBRANCH   7   9
ENDBRANCH   4   5
ENDBRANCH   2   4
BRANCH   2  14
HETATM   14  C   UNK     0      65.863  74.090  65.127  0.00  0.00     0.044 A 
HETATM   15  C   UNK     0      65.570  75.454  65.097  0.00  0.00    -0.035 A 
HETATM   16  C   UNK     0      64.707  75.961  64.126  0.00  0.00     0.009 A 
HETATM   17  C   UNK     0      66.169  76.394  66.092  0.00  0.00     0.050 C 
HETATM   18  C   UNK     0      64.136  75.105  63.184  0.00  0.00     0.007 A 
HETATM   19  C   UNK     0      64.428  73.741  63.214  0.00  0.00    -0.060 A 
HETATM   20  C   UNK     0      65.291  73.233  64.186  0.00  0.00     0.037 A 
HETATM   21  C   UNK     0      63.817  72.826  62.208  0.00  0.00     0.048 C 
ENDBRANCH   2  14
BRANCH   3  22
HETATM   22  C   UNK     0      68.593  74.335  64.655  0.00  0.00     0.104 C 
BRANCH  22  23
HETATM   23  C   UNK     0      69.201  73.377  63.624  0.00  0.00     0.019 C 
BRANCH  23  24
HETATM   24  C   UNK     0      70.520  73.857  63.011  0.00  0.00     0.103 C 
BRANCH  24  25
HETATM   25  C   UNK     0      71.693  72.981  63.419  0.00  0.00     0.223 C 
HETATM   26  O   UNK     0      72.078  72.075  62.687  0.00  0.00    -0.273 OA
HETATM   27  N   UNK     0      72.185  73.328  64.673  0.00  0.00    -0.312 N 
HETATM   28  H   UNK     0      71.754  74.109  65.161  0.00  0.00     0.170 HD
BRANCH  27  29
HETATM   29  C   UNK     0      73.241  72.716  65.386  0.00  0.00     0.129 A 
HETATM   30  N   UNK     0      72.965  71.633  66.145  0.00  0.00    -0.243 NA
HETATM   31  C   UNK     0      74.007  71.083  66.809  0.00  0.00     0.119 A 
HETATM   32  C   UNK     0      75.306  71.563  66.747  0.00  0.00     0.019 A 
HETATM   33  C   UNK     0      75.550  72.679  65.956  0.00  0.00     0.005 A 
HETATM   34  C   UNK     0      74.504  73.273  65.259  0.00  0.00     0.050 A 
ENDBRANCH  27  29
ENDBRANCH  24  25
ENDBRANCH  23  24
ENDBRANCH  22  23
ENDBRANCH   3  22
TORSDOF 9
ENDMDL
MODEL 9
REMARK VINA RESULT:      -8.2      2.783      8.966
REMARK  9 active torsions:
REMARK  status: ('A' for Active; 'I' for Inactive)
REMARK    1  A    between atoms: N_4  and  C_8 
REMARK       I    between atoms: N_4  and  C_13 
REMARK    2  A    between atoms: N_5  and  C_14 
REMARK    3  A    between atoms: N_5  and  C_15 
REMARK       I    between atoms: N_5  and  C_16 
REMARK       I    between atoms: N_6  and  C_27 
REMARK    4  A    between atoms: N_6  and  C_28 
REMARK    5  A    between atoms: C_13  and  C_14 
REMARK    6  A    between atoms: C_16  and  C_17 
REMARK    7  A    between atoms: C_17  and  C_19 
REMARK    8  A    between atoms: C_19  and  C_22 
REMARK    9  A    between atoms: C_22  and  C_27 
ROOT
HETATM    1  O   UNK     0      74.925  71.679  63.467  0.00  0.00    -0.273 OA
HETATM    2  N   UNK     0      76.488  73.150  64.405  0.00  0.00    -0.309 N 
HETATM    3  C   UNK     0      75.198  72.616  64.221  0.00  0.00     0.224 C 
ENDROOT
BRANCH   2   4
HETATM    4  C   UNK     0      77.644  72.604  63.681  0.00  0.00     0.235 C 
BRANCH   4   5
HETATM    5  C   UNK     0      77.972  71.226  64.216  0.00  0.00     0.236 C 
HETATM    6  O   UNK     0      78.046  70.229  63.505  0.00  0.00    -0.272 OA
HETATM    7  N   UNK     0      78.123  71.240  65.596  0.00  0.00    -0.355 N 
HETATM    8  H   UNK     0      78.077  72.130  66.086  0.00  0.00     0.162 HD
BRANCH   7   9
HETATM    9  C   UNK     0      78.392  70.056  66.374  0.00  0.00     0.084 C 
HETATM   10  C   UNK     0      78.811  70.396  67.799  0.00  0.00     0.025 C 
HETATM   11  C   UNK     0      77.502  70.612  68.556  0.00  0.00     0.002 C 
HETATM   12  C   UNK     0      76.418  69.894  67.752  0.00  0.00     0.002 C 
HETATM   13  C   UNK     0      77.133  69.223  66.582  0.00  0.00     0.025 C 
ENDBRANCH   7   9
ENDBRANCH   4   5
ENDBRANCH   2   4
BRANCH   2  14
HETATM   14  C   UNK     0      76.678  74.256  65.324  0.00  0.00     0.044 A 
HETATM   15  C   UNK     0      76.701  75.572  64.862  0.00  0.00    -0.035 A 
HETATM   16  C   UNK     0      76.885  76.623  65.760  0.00  0.00     0.009 A 
HETATM   17  C   UNK     0      76.531  75.886  63.411  0.00  0.00     0.050 C 
HETATM   18  C   UNK     0      77.046  76.358  67.121  0.00  0.00     0.007 A 
HETATM   19  C   UNK     0      77.023  75.041  67.582  0.00  0.00    -0.060 A 
HETATM   20  C   UNK     0      76.839  73.990  66.683  0.00  0.00     0.037 A 
HETATM   21  C   UNK     0      77.195  74.758  69.036  0.00  0.00     0.048 C 
ENDBRANCH   2  14
BRANCH   3  22
HETATM   22  C   UNK     0      74.088  73.285  65.028  0.00  0.00     0.104 C 
BRANCH  22  23
HETATM   23  C   UNK     0      73.503  72.378  66.116  0.00  0.00     0.019 C 
BRANCH  23  24
HETATM   24  C   UNK     0      72.069  72.723  66.528  0.00  0.00     0.103 C 
BRANCH  24  25
HETATM   25  C   UNK     0      71.066  72.401  65.432  0.00  0.00     0.223 C 
HETATM   26  O   UNK     0      70.931  71.250  65.031  0.00  0.00    -0.273 OA
HETATM   27  N   UNK     0      70.415  73.543  64.978  0.00  0.00    -0.312 N 
HETATM   28  H   UNK     0      70.639  74.433  65.414  0.00  0.00     0.170 HD
BRANCH  27  29
HETATM   29  C   UNK     0      69.447  73.634  63.950  0.00  0.00     0.129 A 
HETATM   30  N   UNK     0      68.145  73.480  64.275  0.00  0.00    -0.243 NA
HETATM   31  C   UNK     0      67.258  73.575  63.259  0.00  0.00     0.119 A 
HETATM   32  C   UNK     0      67.611  73.816  61.941  0.00  0.00     0.019 A 
HETATM   33  C   UNK     0      68.961  73.969  61.646  0.00  0.00     0.005 A 
HETATM   34  C   UNK     0      69.903  73.878  62.664  0.00  0.00     0.050 A 
ENDBRANCH  27  29
ENDBRANCH  24  25
ENDBRANCH  23  24
ENDBRANCH  22  23
ENDBRANCH   3  22
TORSDOF 9
ENDMDL
