REMARK  7 active torsions:
REMARK  status: ('A' for Active; 'I' for Inactive)
REMARK    1  A    between atoms: S_2  and  N_10 
REMARK    2  A    between atoms: S_2  and  C_22 
REMARK    3  A    between atoms: O_4  and  C_17 
REMARK    4  A    between atoms: O_5  and  C_21 
REMARK    5  A    between atoms: O_5  and  C_24 
REMARK    6  A    between atoms: N_10  and  C_15 
REMARK    7  A    between atoms: C_13  and  C_21 
ROOT
HETATM    1  N   UNK     0      -0.705   3.203   0.498  0.00  0.00    -0.353 N 
HETATM    2  C   UNK     0      -0.997   1.105  -0.200  0.00  0.00     0.039 A 
HETATM    3  C   UNK     0      -1.610   2.166   0.470  0.00  0.00     0.048 A 
HETATM    4  C   UNK     0       0.305   1.541  -0.571  0.00  0.00     0.076 A 
HETATM    5  C   UNK     0       0.456   2.835  -0.128  0.00  0.00     0.025 A 
HETATM    6  C   UNK     0      -1.716  -0.095  -0.370  0.00  0.00     0.089 A 
HETATM    7  C   UNK     0      -2.910   2.088   0.980  0.00  0.00     0.033 A 
HETATM    8  C   UNK     0      -3.018  -0.188   0.135  0.00  0.00     0.096 A 
HETATM    9  C   UNK     0      -0.948   4.498   1.102  0.00  0.00     0.156 C 
HETATM   10  C   UNK     0       1.606   3.758  -0.246  0.00  0.00     0.069 C 
HETATM   11  C   UNK     0      -3.604   0.887   0.799  0.00  0.00     0.041 A 
ENDROOT
BRANCH   6  12
HETATM   12  N   UNK     0      -1.132  -1.211  -1.049  0.00  0.00    -0.276 N 
HETATM   13  H   UNK     0      -0.512  -0.959  -1.827  0.00  0.00     0.179 HD
BRANCH  12  14
HETATM   14  S   UNK     0      -0.894  -2.732  -0.342  0.00  0.00     0.269 S 
HETATM   15  O   UNK     0      -0.801  -3.746  -1.375  0.00  0.00    -0.200 OA
HETATM   16  O   UNK     0      -1.801  -2.903   0.777  0.00  0.00    -0.200 OA
BRANCH  14  17
HETATM   17  C   UNK     0       0.729  -2.513   0.328  0.00  0.00     0.122 A 
HETATM   18  S   UNK     0       0.807  -1.435   1.650  0.00  0.00    -0.064 SA
HETATM   19  C   UNK     0       2.498  -1.661   1.791  0.00  0.00     0.075 A 
HETATM   20 Cl   UNK     0       3.379  -0.836   3.009  0.00  0.00    -0.076 Cl
HETATM   21  C   UNK     0       2.983  -2.539   0.848  0.00  0.00     0.033 A 
HETATM   22  C   UNK     0       1.952  -3.034  -0.002  0.00  0.00     0.035 A 
ENDBRANCH  14  17
ENDBRANCH  12  14
ENDBRANCH   6  12
BRANCH   8  23
HETATM   23  O   UNK     0      -3.738  -1.338  -0.015  0.00  0.00    -0.354 OA
HETATM   24  C   UNK     0      -4.537  -1.451  -1.189  0.00  0.00     0.210 C 
ENDBRANCH   8  23
BRANCH   4  25
HETATM   25  C   UNK     0       1.319   0.809  -1.278  0.00  0.00     0.296 C 
HETATM   26  O   UNK     0       1.124  -0.082  -2.122  0.00  0.00    -0.259 OA
BRANCH  25  27
HETATM   27  O   UNK     0       2.588   1.207  -0.915  0.00  0.00    -0.318 OA
BRANCH  27  28
HETATM   28  C   UNK     0       3.685   0.546  -1.556  0.00  0.00     0.174 C 
HETATM   29  C   UNK     0       4.982   1.119  -1.028  0.00  0.00     0.034 C 
ENDBRANCH  27  28
ENDBRANCH  25  27
ENDBRANCH   4  25
TORSDOF 7
