REMARK  3 active torsions:
REMARK  status: ('A' for Active; 'I' for Inactive)
REMARK    1  A    between atoms: N_4  and  N_6 
REMARK       I    between atoms: N_6  and  C_16 
REMARK    2  A    between atoms: C_7  and  C_10 
REMARK    3  A    between atoms: C_16  and  C_19 
ROOT
HETATM    1  O   UNK     0       0.540   2.347   0.284  0.00  0.00    -0.265 OA
HETATM    2  N   UNK     0       0.230   0.042   0.428  0.00  0.00    -0.202 N 
HETATM    3  N   UNK     0       2.033  -1.476   0.249  0.00  0.00    -0.232 NA
HETATM    4  C   UNK     0       0.771  -1.235   0.410  0.00  0.00     0.134 A 
HETATM    5  C   UNK     0       0.980   1.202   0.275  0.00  0.00     0.280 A 
HETATM    6  C   UNK     0       2.892  -0.373   0.084  0.00  0.00     0.074 A 
HETATM    7  C   UNK     0       2.429   0.953   0.089  0.00  0.00     0.063 A 
HETATM    8  C   UNK     0       4.261  -0.605  -0.091  0.00  0.00     0.032 A 
HETATM    9  C   UNK     0       3.313   2.023  -0.078  0.00  0.00     0.019 A 
HETATM   10  C   UNK     0       5.147   0.461  -0.259  0.00  0.00     0.002 A 
HETATM   11  C   UNK     0       4.674   1.772  -0.252  0.00  0.00     0.001 A 
ENDROOT
BRANCH   2  12
HETATM   12  N   UNK     0      -1.127   0.196   0.605  0.00  0.00    -0.253 N 
HETATM   13  C   UNK     0      -1.936   0.269  -0.515  0.00  0.00     0.294 C 
HETATM   14  O   UNK     0      -1.490   0.173  -1.661  0.00  0.00    -0.264 OA
HETATM   15  H   UNK     0      -1.462   0.279   1.559  0.00  0.00     0.191 HD
BRANCH  13  16
HETATM   16  C   UNK     0      -3.364   0.495  -0.247  0.00  0.00     0.144 A 
HETATM   17  O   UNK     0      -3.710   0.604   1.040  0.00  0.00    -0.317 OA
HETATM   18  C   UNK     0      -5.054   0.805   1.023  0.00  0.00     0.143 A 
HETATM   19  C   UNK     0      -5.524   0.819  -0.270  0.00  0.00     0.027 A 
HETATM   20  C   UNK     0      -4.397   0.613  -1.100  0.00  0.00     0.045 A 
ENDBRANCH  13  16
ENDBRANCH   2  12
BRANCH   4  21
HETATM   21  C   UNK     0      -0.132  -2.407   0.583  0.00  0.00     0.057 A 
HETATM   22  C   UNK     0      -0.827  -2.954  -0.619  0.00  0.00     0.013 A 
HETATM   23  C   UNK     0       0.292  -3.723   0.021  0.00  0.00     0.013 A 
ENDBRANCH   4  21
TORSDOF 3
