REMARK  6 active torsions:
REMARK  status: ('A' for Active; 'I' for Inactive)
REMARK    1  A    between atoms: S_2  and  C_13 
REMARK    2  A    between atoms: S_2  and  C_15 
REMARK    3  A    between atoms: N_4  and  C_12 
REMARK       I    between atoms: N_7  and  C_16 
REMARK    4  A    between atoms: N_7  and  C_17 
REMARK    5  A    between atoms: C_8  and  C_11 
REMARK    6  A    between atoms: C_15  and  C_16 
ROOT
HETATM    1  C   UNK     0       0.134   1.273  -0.037  0.00  0.00     0.185 C 
ENDROOT
BRANCH   1   2
HETATM    2  S   UNK     0      -0.805  -0.084   0.704  0.00  0.00    -0.081 SA
BRANCH   2   3
HETATM    3  C   UNK     0      -2.407   0.247   0.035  0.00  0.00     0.192 A 
HETATM    4  N   UNK     0      -3.464  -0.523   0.314  0.00  0.00    -0.311 N 
HETATM    5  C   UNK     0      -4.486   0.052  -0.379  0.00  0.00     0.135 A 
HETATM    6  N   UNK     0      -4.042   1.105  -1.029  0.00  0.00    -0.134 NA
HETATM    7  N   UNK     0      -2.694   1.224  -0.755  0.00  0.00    -0.123 NA
BRANCH   4   8
HETATM    8  C   UNK     0      -3.558  -1.698   1.148  0.00  0.00     0.128 C 
HETATM    9  C   UNK     0      -3.299  -2.977   0.371  0.00  0.00     0.027 C 
ENDBRANCH   4   8
BRANCH   5  10
HETATM   10  C   UNK     0      -5.937  -0.435  -0.412  0.00  0.00     0.057 A 
HETATM   11  C   UNK     0      -7.030   0.554  -0.715  0.00  0.00     0.013 A 
HETATM   12  C   UNK     0      -6.878   0.008   0.675  0.00  0.00     0.013 A 
ENDBRANCH   5  10
ENDBRANCH   2   3
ENDBRANCH   1   2
BRANCH   1  13
HETATM   13  C   UNK     0       1.574   1.176   0.418  0.00  0.00     0.231 C 
HETATM   14  O   UNK     0       1.939   1.727   1.453  0.00  0.00    -0.272 OA
HETATM   15  N   UNK     0       2.363   0.402  -0.445  0.00  0.00    -0.327 N 
HETATM   16  H   UNK     0       1.896   0.000  -1.255  0.00  0.00     0.169 HD
BRANCH  15  17
HETATM   17  C   UNK     0       3.721   0.102  -0.336  0.00  0.00     0.034 A 
HETATM   18  C   UNK     0       4.340  -0.692  -1.302  0.00  0.00     0.031 A 
HETATM   19  C   UNK     0       5.698  -0.991  -1.193  0.00  0.00     0.026 A 
HETATM   20  C   UNK     0       6.437  -0.497  -0.118  0.00  0.00     0.034 A 
HETATM   21 Cl   UNK     0       8.113  -0.866   0.016  0.00  0.00    -0.084 Cl
HETATM   22  C   UNK     0       5.819   0.297   0.847  0.00  0.00     0.026 A 
HETATM   23  C   UNK     0       4.461   0.597   0.738  0.00  0.00     0.031 A 
ENDBRANCH  15  17
ENDBRANCH   1  13
TORSDOF 6
