REMARK  5 active torsions:
REMARK  status: ('A' for Active; 'I' for Inactive)
REMARK    1  A    between atoms: S_1  and  N_8 
REMARK    2  A    between atoms: S_1  and  C_14 
REMARK    3  A    between atoms: S_2  and  N_9 
REMARK    4  A    between atoms: S_2  and  C_20 
REMARK    5  A    between atoms: N_9  and  C_17 
ROOT
HETATM    1  C   UNK     0       1.492   1.614   0.291  0.00  0.00     0.074 A 
HETATM    2  C   UNK     0       0.811   1.921  -0.875  0.00  0.00     0.027 A 
HETATM    3  C   UNK     0       0.823   1.430   1.490  0.00  0.00     0.027 A 
HETATM    4  C   UNK     0      -1.266   1.866   0.358  0.00  0.00     0.042 A 
HETATM    5  C   UNK     0      -0.578   2.048  -0.841  0.00  0.00     0.031 A 
HETATM    6  C   UNK     0      -0.565   1.556   1.524  0.00  0.00     0.031 A 
ENDROOT
BRANCH   4   7
HETATM    7  N   UNK     0      -2.688   1.995   0.393  0.00  0.00    -0.281 N 
HETATM    8  H   UNK     0      -3.079   2.223   1.316  0.00  0.00     0.179 HD
BRANCH   7   9
HETATM    9  S   UNK     0      -3.641   0.950  -0.591  0.00  0.00     0.263 S 
HETATM   10  O   UNK     0      -5.023   1.023  -0.156  0.00  0.00    -0.200 OA
HETATM   11  O   UNK     0      -3.314   1.149  -1.990  0.00  0.00    -0.200 OA
BRANCH   9  12
HETATM   12  C   UNK     0      -3.038  -0.645  -0.117  0.00  0.00     0.079 A 
HETATM   13  C   UNK     0      -3.644  -1.309   0.934  0.00  0.00     0.025 A 
HETATM   14  C   UNK     0      -3.168  -2.566   1.308  0.00  0.00     0.002 A 
HETATM   15  C   UNK     0      -2.095  -3.137   0.624  0.00  0.00     0.000 A 
HETATM   16  C   UNK     0      -1.497  -2.451  -0.433  0.00  0.00     0.002 A 
HETATM   17  C   UNK     0      -1.972  -1.195  -0.807  0.00  0.00     0.025 A 
ENDBRANCH   9  12
ENDBRANCH   7   9
ENDBRANCH   4   7
BRANCH   1  18
HETATM   18  S   UNK     0       3.250   1.453   0.248  0.00  0.00     0.243 S 
HETATM   19  O   UNK     0       3.736   2.214  -0.883  0.00  0.00    -0.206 OA
HETATM   20  O   UNK     0       3.752   1.699   1.584  0.00  0.00    -0.206 OA
BRANCH  18  21
HETATM   21  N   UNK     0       3.389  -0.217  -0.100  0.00  0.00    -0.202 NA
HETATM   22  C   UNK     0       2.764  -0.661  -1.380  0.00  0.00     0.134 C 
HETATM   23  C   UNK     0       3.189  -2.096  -1.660  0.00  0.00     0.183 C 
HETATM   24  O   UNK     0       2.806  -2.948  -0.578  0.00  0.00    -0.389 OA
HETATM   25  C   UNK     0       3.446  -2.553   0.638  0.00  0.00     0.183 C 
HETATM   26  C   UNK     0       3.032  -1.139   1.018  0.00  0.00     0.134 C 
ENDBRANCH  18  21
ENDBRANCH   1  18
TORSDOF 5
