REMARK  4 active torsions:
REMARK  status: ('A' for Active; 'I' for Inactive)
REMARK    1  A    between atoms: N_5  and  C_12 
REMARK    2  A    between atoms: N_6  and  C_13 
REMARK    3  A    between atoms: C_19  and  C_23 
REMARK    4  A    between atoms: C_21  and  C_24 
ROOT
HETATM    1  N   UNK     0      -1.717   0.012  -0.017  0.00  0.00    -0.378 N 
HETATM    2  N   UNK     0       1.162   0.000  -0.019  0.00  0.00    -0.363 N 
HETATM    3  C   UNK     0      -0.968  -1.245  -0.010  0.00  0.00     0.143 C 
HETATM    4  C   UNK     0      -0.958   1.263  -0.027  0.00  0.00     0.143 C 
HETATM    5  C   UNK     0       0.403  -1.069  -0.669  0.00  0.00     0.144 C 
HETATM    6  C   UNK     0       0.413   1.076   0.629  0.00  0.00     0.144 C 
ENDROOT
BRANCH   2   7
HETATM    7  C   UNK     0       2.554  -0.006  -0.020  0.00  0.00     0.125 A 
HETATM    8  N   UNK     0       3.246  -0.582  -1.059  0.00  0.00    -0.243 NA
HETATM    9  C   UNK     0       4.597  -0.563  -1.010  0.00  0.00     0.135 A 
HETATM   10  C   UNK     0       5.328   0.002   0.023  0.00  0.00     0.065 A 
HETATM   11  C   UNK     0       4.627   0.584   1.074  0.00  0.00     0.021 A 
HETATM   12  C   UNK     0       3.237   0.585   1.059  0.00  0.00     0.051 A 
BRANCH  10  13
HETATM   13  C   UNK     0       6.815  -0.016   0.010  0.00  0.00     0.418 C 
HETATM   14  F   UNK     0       7.383   0.580   1.102  0.00  0.00    -0.166 F 
HETATM   15  F   UNK     0       7.351  -1.274  -0.023  0.00  0.00    -0.166 F 
HETATM   16  F   UNK     0       7.342   0.631  -1.072  0.00  0.00    -0.166 F 
ENDBRANCH  10  13
ENDBRANCH   2   7
BRANCH   1  17
HETATM   17  C   UNK     0      -3.109   0.018  -0.014  0.00  0.00     0.030 A 
HETATM   18  C   UNK     0      -3.849  -1.021   0.599  0.00  0.00     0.030 A 
HETATM   19  C   UNK     0      -5.244  -1.016   0.600  0.00  0.00     0.017 A 
HETATM   20  C   UNK     0      -5.938   0.028  -0.010  0.00  0.00     0.009 A 
HETATM   21  C   UNK     0      -5.237   1.067  -0.622  0.00  0.00     0.017 A 
HETATM   22  C   UNK     0      -3.842   1.062  -0.624  0.00  0.00     0.030 A 
BRANCH  20  23
HETATM   23  C   UNK     0      -7.392   0.033  -0.009  0.00  0.00     0.155 C 
HETATM   24  O   UNK     0      -8.040   0.953  -0.547  0.00  0.00    -0.293 OA
HETATM   25  C   UNK     0      -8.164  -1.101   0.657  0.00  0.00     0.096 C 
ENDBRANCH  20  23
ENDBRANCH   1  17
TORSDOF 4
