REMARK  3 active torsions:
REMARK  status: ('A' for Active; 'I' for Inactive)
REMARK    1  A    between atoms: S_1  and  C_16 
REMARK    2  A    between atoms: S_1  and  C_21 
REMARK       I    between atoms: N_3  and  C_11 
REMARK    3  A    between atoms: C_11  and  C_16 
ROOT
HETATM    1  O   UNK     0      -0.145   1.922   1.388  0.00  0.00    -0.272 OA
HETATM    2  N   UNK     0       1.134   0.291   0.423  0.00  0.00    -0.280 N 
HETATM    3  C   UNK     0       2.254   1.074   0.089  0.00  0.00     0.053 A 
HETATM    4  C   UNK     0       1.495  -1.062   0.295  0.00  0.00     0.053 A 
HETATM    5  C   UNK     0       3.290   0.219  -0.291  0.00  0.00     0.004 A 
HETATM    6  C   UNK     0       2.816  -1.113  -0.168  0.00  0.00     0.004 A 
HETATM    7  C   UNK     0      -0.113   0.840   0.814  0.00  0.00     0.238 C 
HETATM    8  C   UNK     0       2.443   2.473   0.053  0.00  0.00     0.031 A 
HETATM    9  C   UNK     0       0.811  -2.267   0.565  0.00  0.00     0.031 A 
HETATM   10  C   UNK     0       4.532   0.762  -0.694  0.00  0.00     0.014 A 
HETATM   11  C   UNK     0       3.433  -2.364  -0.404  0.00  0.00     0.014 A 
HETATM   12  C   UNK     0       3.680   2.989  -0.348  0.00  0.00     0.002 A 
HETATM   13  C   UNK     0       1.441  -3.494   0.327  0.00  0.00     0.002 A 
HETATM   14  C   UNK     0       4.716   2.144  -0.717  0.00  0.00     0.001 A 
HETATM   15  C   UNK     0       2.736  -3.546  -0.158  0.00  0.00     0.001 A 
ENDROOT
BRANCH   7  16
HETATM   16  C   UNK     0      -1.356   0.075   0.499  0.00  0.00     0.186 C 
BRANCH  16  17
HETATM   17  S   UNK     0      -2.700   1.256   0.270  0.00  0.00    -0.081 SA
BRANCH  17  18
HETATM   18  C   UNK     0      -4.082   0.174  -0.093  0.00  0.00     0.191 A 
HETATM   19  N   UNK     0      -5.289   0.666  -0.332  0.00  0.00    -0.322 N 
HETATM   20  C   UNK     0      -5.770   2.026  -0.362  0.00  0.00     0.159 C 
HETATM   21  C   UNK     0      -6.038  -0.448  -0.559  0.00  0.00     0.235 A 
HETATM   22  N   UNK     0      -5.284  -1.519  -0.452  0.00  0.00    -0.143 NA
HETATM   23  N   UNK     0      -4.005  -1.097  -0.147  0.00  0.00    -0.123 NA
ENDBRANCH  17  18
ENDBRANCH  16  17
ENDBRANCH   7  16
TORSDOF 3
