REMARK  5 active torsions:
REMARK  status: ('A' for Active; 'I' for Inactive)
REMARK    1  A    between atoms: S_1  and  C_6 
REMARK    2  A    between atoms: S_1  and  C_14 
REMARK       I    between atoms: N_3  and  C_8 
REMARK    3  A    between atoms: N_3  and  C_9 
REMARK    4  A    between atoms: C_6  and  C_7 
REMARK    5  A    between atoms: C_6  and  C_8 
ROOT
HETATM    1  O   UNK     0       1.636  -1.716   1.247  0.00  0.00    -0.272 OA
HETATM    2  N   UNK     0       0.223  -1.008  -0.491  0.00  0.00    -0.325 N 
HETATM    3  C   UNK     0       1.454  -1.328   0.096  0.00  0.00     0.236 C 
HETATM    4  H   UNK     0       0.280  -0.529  -1.384  0.00  0.00     0.169 HD
ENDROOT
BRANCH   2   5
HETATM    5  C   UNK     0      -1.052  -1.081   0.083  0.00  0.00     0.045 A 
HETATM    6  C   UNK     0      -2.088  -0.214  -0.303  0.00  0.00     0.001 A 
HETATM    7  C   UNK     0      -3.356  -0.334   0.314  0.00  0.00    -0.024 A 
HETATM    8  C   UNK     0      -1.893   0.768  -1.287  0.00  0.00     0.014 A 
HETATM    9  C   UNK     0      -3.551  -1.317   1.298  0.00  0.00     0.012 A 
HETATM   10  C   UNK     0      -4.392   0.533  -0.072  0.00  0.00     0.012 A 
HETATM   11  C   UNK     0      -2.511  -2.169   1.669  0.00  0.00     0.003 A 
HETATM   12  C   UNK     0      -1.264  -2.051   1.063  0.00  0.00     0.030 A 
HETATM   13  C   UNK     0      -4.180   1.503  -1.052  0.00  0.00     0.001 A 
HETATM   14  C   UNK     0      -2.933   1.621  -1.658  0.00  0.00     0.001 A 
ENDBRANCH   2   5
BRANCH   3  15
HETATM   15  C   UNK     0       2.621  -1.112  -0.867  0.00  0.00     0.147 C 
BRANCH  15  16
HETATM   16  S   UNK     0       3.654   0.215  -0.147  0.00  0.00    -0.077 SA
BRANCH  16  17
HETATM   17  C   UNK     0       2.473   1.552  -0.051  0.00  0.00     0.168 A 
HETATM   18  N   UNK     0       2.168   2.107   1.127  0.00  0.00    -0.339 N 
HETATM   19  C   UNK     0       1.251   3.080   0.844  0.00  0.00     0.112 A 
HETATM   20  C   UNK     0       2.660   1.800   2.452  0.00  0.00     0.158 C 
HETATM   21  C   UNK     0       1.084   3.019  -0.520  0.00  0.00     0.136 A 
HETATM   22  N   UNK     0       1.870   2.039  -1.072  0.00  0.00    -0.235 NA
ENDBRANCH  16  17
ENDBRANCH  15  16
BRANCH  15  23
HETATM   23  C   UNK     0       3.471  -2.375  -1.054  0.00  0.00     0.021 C 
HETATM   24  C   UNK     0       2.655  -3.532  -1.619  0.00  0.00     0.006 C 
ENDBRANCH  15  23
ENDBRANCH   3  15
TORSDOF 5
