REMARK  11 active torsions:
REMARK  status: ('A' for Active; 'I' for Inactive)
REMARK    1  A    between atoms: O_1  and  C_11 
REMARK    2  A    between atoms: O_1  and  C_13 
REMARK    3  A    between atoms: O_2  and  C_20 
REMARK    4  A    between atoms: N_3  and  C_15 
REMARK    5  A    between atoms: N_3  and  C_19 
REMARK    6  A    between atoms: C_4  and  C_5 
REMARK    7  A    between atoms: C_9  and  C_10 
REMARK    8  A    between atoms: C_9  and  C_12 
REMARK    9  A    between atoms: C_10  and  C_13 
REMARK   10  A    between atoms: C_12  and  C_15 
REMARK   11  A    between atoms: C_19  and  C_20 
ROOT
HETATM    1  O   UNK     0       1.378  -0.776  -0.200  0.00  0.00    -0.351 OA
ENDROOT
BRANCH   1   2
HETATM    2  C   UNK     0       2.742  -0.634  -0.237  0.00  0.00     0.075 A 
HETATM    3  C   UNK     0       3.334   0.617  -0.063  0.00  0.00    -0.017 A 
HETATM    4  C   UNK     0       4.723   0.743  -0.104  0.00  0.00     0.011 A 
HETATM    5  C   UNK     0       5.519  -0.382  -0.319  0.00  0.00     0.001 A 
HETATM    6  C   UNK     0       4.927  -1.633  -0.494  0.00  0.00     0.003 A 
HETATM    7  C   UNK     0       3.538  -1.759  -0.453  0.00  0.00     0.037 A 
BRANCH   3   8
HETATM    8  C   UNK     0       2.497   1.831   0.169  0.00  0.00    -0.021 C 
HETATM    9  C   UNK     0       3.384   3.104   0.334  0.00  0.00     0.019 C 
HETATM   10  C   UNK     0       1.637   1.686   1.461  0.00  0.00     0.019 C 
HETATM   11  C   UNK     0       1.484   2.174  -0.972  0.00  0.00     0.019 C 
ENDBRANCH   3   8
ENDBRANCH   1   2
BRANCH   1  12
HETATM   12  C   UNK     0       0.876  -2.020   0.266  0.00  0.00     0.175 C 
BRANCH  12  13
HETATM   13  C   UNK     0      -0.479  -1.817   0.933  0.00  0.00     0.027 C 
BRANCH  13  14
HETATM   14  C   UNK     0      -1.520  -1.241  -0.031  0.00  0.00     0.004 C 
BRANCH  14  15
HETATM   15  C   UNK     0      -2.861  -1.015   0.670  0.00  0.00     0.030 C 
BRANCH  15  16
HETATM   16  C   UNK     0      -3.908  -0.474  -0.302  0.00  0.00     0.269 C 
BRANCH  16  17
HETATM   17  N   UNK     0      -5.171  -0.246   0.389  0.00  0.00     0.085 N 
HETATM   18  H   UNK     0      -5.032   0.419   1.150  0.00  0.00     0.315 HD
BRANCH  17  19
HETATM   19  C   UNK     0      -6.182   0.261  -0.529  0.00  0.00     0.295 C 
BRANCH  19  20
HETATM   20  C   UNK     0      -7.484   0.538   0.205  0.00  0.00     0.194 C 
BRANCH  20  21
HETATM   21  O   UNK     0      -8.433   1.045  -0.723  0.00  0.00    -0.399 OA
HETATM   22  H   UNK     0      -9.254   1.212  -0.229  0.00  0.00     0.209 HD
ENDBRANCH  20  21
ENDBRANCH  19  20
ENDBRANCH  17  19
ENDBRANCH  16  17
ENDBRANCH  15  16
ENDBRANCH  14  15
ENDBRANCH  13  14
ENDBRANCH  12  13
ENDBRANCH   1  12
TORSDOF 11
