REMARK  6 active torsions:
REMARK  status: ('A' for Active; 'I' for Inactive)
REMARK    1  A    between atoms: S_1  and  C_16 
REMARK    2  A    between atoms: S_1  and  C_17 
REMARK       I    between atoms: N_6  and  C_15 
REMARK    3  A    between atoms: N_10  and  C_23 
REMARK       I    between atoms: N_10  and  C_26 
REMARK    4  A    between atoms: C_15  and  C_16 
REMARK    5  A    between atoms: C_18  and  C_19 
REMARK    6  A    between atoms: C_26  and  C_27 
ROOT
HETATM    1  C   UNK     0       0.540  -1.210  -0.119  0.00  0.00     0.012 A 
HETATM    2  C   UNK     0       1.125  -0.159  -0.824  0.00  0.00     0.017 A 
HETATM    3  C   UNK     0       1.321  -2.019   0.705  0.00  0.00     0.017 A 
HETATM    4  C   UNK     0       3.276  -0.724   0.121  0.00  0.00     0.035 A 
HETATM    5  C   UNK     0       2.494   0.084  -0.703  0.00  0.00     0.030 A 
HETATM    6  C   UNK     0       2.690  -1.776   0.826  0.00  0.00     0.030 A 
ENDROOT
BRANCH   1   7
HETATM    7  C   UNK     0      -0.875  -1.463  -0.245  0.00  0.00     0.164 A 
HETATM    8  N   UNK     0      -1.825  -0.904   0.554  0.00  0.00    -0.312 N 
HETATM    9  C   UNK     0      -2.975  -1.405   0.091  0.00  0.00     0.191 A 
HETATM   10  C   UNK     0      -1.602   0.019   1.645  0.00  0.00     0.160 C 
HETATM   11  N   UNK     0      -2.808  -2.207  -0.903  0.00  0.00    -0.122 NA
HETATM   12  N   UNK     0      -1.447  -2.250  -1.128  0.00  0.00    -0.128 NA
BRANCH   9  13
HETATM   13  S   UNK     0      -4.537  -0.979   0.804  0.00  0.00    -0.081 SA
BRANCH  13  14
HETATM   14  C   UNK     0      -5.603  -1.127  -0.638  0.00  0.00     0.185 C 
BRANCH  14  15
HETATM   15  C   UNK     0      -7.008  -0.791  -0.206  0.00  0.00     0.229 C 
HETATM   16  O   UNK     0      -7.747  -1.691   0.201  0.00  0.00    -0.273 OA
HETATM   17  N   UNK     0      -7.382   0.548  -0.294  0.00  0.00    -0.347 N 
HETATM   18  C   UNK     0      -8.764   0.941  -0.020  0.00  0.00     0.152 C 
HETATM   19  C   UNK     0      -6.529   1.640  -0.773  0.00  0.00     0.152 C 
HETATM   20  C   UNK     0      -8.797   2.177   0.868  0.00  0.00     0.187 C 
HETATM   21  O   UNK     0      -8.030   3.230   0.279  0.00  0.00    -0.388 OA
HETATM   22  C   UNK     0      -6.657   2.850   0.144  0.00  0.00     0.187 C 
ENDBRANCH  14  15
ENDBRANCH  13  14
ENDBRANCH   9  13
ENDBRANCH   1   7
BRANCH   4  23
HETATM   23  N   UNK     0       4.644  -0.480   0.242  0.00  0.00    -0.323 N 
HETATM   24  C   UNK     0       5.400   0.521  -0.382  0.00  0.00     0.259 C 
HETATM   25  O   UNK     0       4.990   1.376  -1.158  0.00  0.00    -0.267 OA
HETATM   26  H   UNK     0       5.117  -1.098   0.896  0.00  0.00     0.169 HD
BRANCH  24  27
HETATM   27  C   UNK     0       6.854   0.507  -0.073  0.00  0.00     0.070 A 
HETATM   28  C   UNK     0       7.552   1.696  -0.081  0.00  0.00     0.132 A 
HETATM   29  F   UNK     0       6.952   2.862  -0.361  0.00  0.00    -0.205 F 
HETATM   30  C   UNK     0       8.916   1.679   0.210  0.00  0.00     0.043 A 
HETATM   31  C   UNK     0       9.551   0.472   0.502  0.00  0.00     0.003 A 
HETATM   32  C   UNK     0       8.823  -0.717   0.504  0.00  0.00     0.001 A 
HETATM   33  C   UNK     0       7.458  -0.700   0.213  0.00  0.00     0.020 A 
ENDBRANCH  24  27
ENDBRANCH   4  23
TORSDOF 6
