REMARK  5 active torsions:
REMARK  status: ('A' for Active; 'I' for Inactive)
REMARK    1  A    between atoms: O_3  and  C_33 
REMARK    2  A    between atoms: N_4  and  C_12 
REMARK    3  A    between atoms: N_5  and  C_16 
REMARK    4  A    between atoms: N_7  and  C_20 
REMARK    5  A    between atoms: C_15  and  C_17 
ROOT
HETATM    1  S   UNK     0      -0.019   2.898  -0.415  0.00  0.00    -0.080 SA
HETATM    2  N   UNK     0       2.274   1.543  -0.446  0.00  0.00    -0.308 N 
HETATM    3  N   UNK     0       1.928  -1.348   1.765  0.00  0.00    -0.191 NA
HETATM    4  C   UNK     0       0.436   0.621   0.944  0.00  0.00     0.127 C 
HETATM    5  C   UNK     0       0.980   1.506   0.093  0.00  0.00     0.106 A 
HETATM    6  C   UNK     0       2.449   2.690  -1.242  0.00  0.00     0.020 A 
HETATM    7  C   UNK     0       1.359   3.480  -1.323  0.00  0.00     0.077 A 
HETATM    8  C   UNK     0       3.705   2.973  -2.003  0.00  0.00     0.069 C 
HETATM    9  C   UNK     0       1.272  -0.466   1.392  0.00  0.00     0.106 C 
ENDROOT
BRANCH   4  10
HETATM   10  C   UNK     0      -0.902   0.749   1.361  0.00  0.00     0.197 A 
HETATM   11  N   UNK     0      -1.904   0.165   0.647  0.00  0.00    -0.124 N 
HETATM   12  C   UNK     0      -3.056   0.474   1.307  0.00  0.00     0.729 A 
HETATM   13  N   UNK     0      -2.775   1.206   2.364  0.00  0.00     0.044 NA
HETATM   14  N   UNK     0      -1.406   1.380   2.398  0.00  0.00    -0.113 NA
BRANCH  11  15
HETATM   15  C   UNK     0      -1.787  -0.595  -0.520  0.00  0.00     0.059 A 
HETATM   16  C   UNK     0      -1.618  -1.969  -0.425  0.00  0.00     0.030 A 
HETATM   17  C   UNK     0      -1.505  -2.728  -1.590  0.00  0.00     0.002 A 
HETATM   18  C   UNK     0      -1.563  -2.106  -2.837  0.00  0.00     0.000 A 
HETATM   19  C   UNK     0      -1.733  -0.724  -2.919  0.00  0.00     0.002 A 
HETATM   20  C   UNK     0      -1.846   0.036  -1.754  0.00  0.00     0.030 A 
ENDBRANCH  11  15
BRANCH  12  21
HETATM   21  N   UNK     0      -4.279   0.035   0.849  0.00  0.00    -0.210 N 
HETATM   22  C   UNK     0      -5.325   0.999   0.483  0.00  0.00     0.167 C 
HETATM   23  C   UNK     0      -6.187   0.413  -0.629  0.00  0.00     0.188 C 
HETATM   24  O   UNK     0      -6.720  -0.850  -0.227  0.00  0.00    -0.388 OA
HETATM   25  C   UNK     0      -5.671  -1.789   0.013  0.00  0.00     0.188 C 
HETATM   26  C   UNK     0      -4.773  -1.312   1.150  0.00  0.00     0.167 C 
ENDBRANCH  12  21
ENDBRANCH   4  10
BRANCH   2  27
HETATM   27  C   UNK     0       3.263   0.543  -0.242  0.00  0.00     0.040 A 
HETATM   28  C   UNK     0       4.172   0.646   0.821  0.00  0.00     0.033 A 
HETATM   29  C   UNK     0       5.143  -0.335   1.020  0.00  0.00     0.039 A 
HETATM   30  C   UNK     0       5.216  -1.430   0.159  0.00  0.00     0.068 A 
HETATM   31  C   UNK     0       4.318  -1.543  -0.902  0.00  0.00     0.039 A 
HETATM   32  C   UNK     0       3.346  -0.562  -1.102  0.00  0.00     0.033 A 
BRANCH  30  33
HETATM   33  O   UNK     0       6.162  -2.388   0.354  0.00  0.00    -0.356 OA
HETATM   34  C   UNK     0       7.048  -2.211   1.459  0.00  0.00     0.210 C 
ENDBRANCH  30  33
ENDBRANCH   2  27
TORSDOF 5
