REMARK  8 active torsions:
REMARK  status: ('A' for Active; 'I' for Inactive)
REMARK    1  A    between atoms: S_1  and  C_11 
REMARK    2  A    between atoms: S_1  and  C_13 
REMARK    3  A    between atoms: O_2  and  C_12 
REMARK    4  A    between atoms: N_3  and  C_10 
REMARK    5  A    between atoms: C_7  and  C_8 
REMARK    6  A    between atoms: C_7  and  C_9 
REMARK    7  A    between atoms: C_9  and  C_12 
REMARK    8  A    between atoms: C_13  and  C_16 
ROOT
HETATM    1  N   UNK     0       6.714  -0.136   2.970  0.00  0.00    -0.191 NA
HETATM    2  C   UNK     0       3.534   0.633  -0.593  0.00  0.00    -0.047 A 
HETATM    3  C   UNK     0       4.193   0.545   0.633  0.00  0.00     0.030 A 
HETATM    4  C   UNK     0       4.168   0.203  -1.759  0.00  0.00     0.008 A 
HETATM    5  C   UNK     0       5.488   0.028   0.693  0.00  0.00     0.045 A 
HETATM    6  C   UNK     0       5.462  -0.314  -1.698  0.00  0.00     0.002 A 
HETATM    7  C   UNK     0       6.122  -0.401  -0.472  0.00  0.00     0.022 A 
HETATM    8  C   UNK     0       6.164  -0.062   1.949  0.00  0.00     0.099 C 
ENDROOT
BRANCH   2   9
HETATM    9  C   UNK     0       2.149   1.184  -0.658  0.00  0.00     0.121 C 
BRANCH   9  10
HETATM   10  S   UNK     0       0.878  -0.101  -0.460  0.00  0.00    -0.085 SA
BRANCH  10  11
HETATM   11  C   UNK     0      -0.622   0.867  -0.583  0.00  0.00     0.196 A 
HETATM   12  N   UNK     0      -1.825   0.313  -0.491  0.00  0.00    -0.275 N 
HETATM   13  C   UNK     0      -2.671   1.370  -0.634  0.00  0.00     0.135 A 
HETATM   14  N   UNK     0      -1.977   2.474  -0.799  0.00  0.00    -0.134 NA
HETATM   15  N   UNK     0      -0.640   2.132  -0.764  0.00  0.00    -0.122 NA
BRANCH  12  16
HETATM   16  C   UNK     0      -2.194  -1.018  -0.296  0.00  0.00     0.043 A 
HETATM   17  C   UNK     0      -2.388  -1.844  -1.395  0.00  0.00     0.030 A 
HETATM   18  C   UNK     0      -2.758  -3.175  -1.201  0.00  0.00     0.002 A 
HETATM   19  C   UNK     0      -2.931  -3.668   0.093  0.00  0.00     0.000 A 
HETATM   20  C   UNK     0      -2.734  -2.831   1.191  0.00  0.00     0.002 A 
HETATM   21  C   UNK     0      -2.364  -1.500   0.996  0.00  0.00     0.030 A 
ENDBRANCH  12  16
BRANCH  13  22
HETATM   22  C   UNK     0      -4.142   1.253  -0.602  0.00  0.00     0.083 C 
BRANCH  22  23
HETATM   23  C   UNK     0      -4.719   1.408   0.819  0.00  0.00     0.033 C 
BRANCH  23  24
HETATM   24  C   UNK     0      -6.231   1.233   0.862  0.00  0.00     0.164 C 
BRANCH  24  25
HETATM   25  O   UNK     0      -6.675   1.407   2.200  0.00  0.00    -0.401 OA
HETATM   26  H   UNK     0      -7.641   1.290   2.197  0.00  0.00     0.209 HD
ENDBRANCH  24  25
ENDBRANCH  23  24
ENDBRANCH  22  23
ENDBRANCH  13  22
ENDBRANCH  10  11
ENDBRANCH   9  10
ENDBRANCH   2   9
TORSDOF 8
