REMARK  2 active torsions:
REMARK  status: ('A' for Active; 'I' for Inactive)
REMARK    1  A    between atoms: S_2  and  C_7 
REMARK    2  A    between atoms: S_2  and  C_11 
ROOT
HETATM    1 Cl   UNK     0      -5.873   0.065   0.655  0.00  0.00    -0.084 Cl
HETATM    2  O   UNK     0      -0.254   0.211  -0.791  0.00  0.00    -0.284 OA
HETATM    3  N   UNK     0      -0.887  -1.510   0.541  0.00  0.00    -0.216 NA
HETATM    4  C   UNK     0       0.092  -0.913  -0.102  0.00  0.00     0.211 A 
HETATM    5  C   UNK     0      -1.977  -0.721   0.261  0.00  0.00     0.095 A 
HETATM    6  C   UNK     0      -1.593   0.333  -0.554  0.00  0.00     0.107 A 
HETATM    7  C   UNK     0      -3.320  -0.822   0.652  0.00  0.00     0.058 A 
HETATM    8  C   UNK     0      -2.449   1.320  -1.027  0.00  0.00     0.041 A 
HETATM    9  C   UNK     0      -4.214   0.156   0.194  0.00  0.00     0.036 A 
HETATM   10  C   UNK     0      -3.785   1.205  -0.629  0.00  0.00     0.026 A 
ENDROOT
BRANCH   4  11
HETATM   11  S   UNK     0       1.731  -1.509  -0.086  0.00  0.00    -0.069 SA
BRANCH  11  12
HETATM   12  C   UNK     0       2.652   0.029  -0.268  0.00  0.00     0.157 C 
HETATM   13  C   UNK     0       2.483   0.952   0.919  0.00  0.00     0.052 C 
HETATM   14  C   UNK     0       3.771   1.737   0.888  0.00  0.00     0.180 C 
HETATM   15  O   UNK     0       4.754   0.809   0.416  0.00  0.00    -0.321 OA
HETATM   16  C   UNK     0       4.136  -0.211  -0.263  0.00  0.00     0.273 C 
HETATM   17  O   UNK     0       4.731  -1.130  -0.805  0.00  0.00    -0.264 OA
ENDBRANCH  11  12
ENDBRANCH   4  11
TORSDOF 2
