REMARK  2 active torsions:
REMARK  status: ('A' for Active; 'I' for Inactive)
REMARK    1  A    between atoms: O_1  and  C_9 
REMARK    2  A    between atoms: C_7  and  C_11 
ROOT
HETATM    1  O   UNK     0       1.722   2.993   0.179  0.00  0.00    -0.265 OA
HETATM    2  N   UNK     0       1.057  -0.936  -0.043  0.00  0.00    -0.324 N 
HETATM    3  N   UNK     0       0.198   1.284   0.087  0.00  0.00    -0.191 NA
HETATM    4  C   UNK     0       0.539  -2.287  -0.102  0.00  0.00     0.196 A 
HETATM    5  C   UNK     0       0.047  -0.002   0.009  0.00  0.00     0.148 A 
HETATM    6  C   UNK     0      -1.279  -0.686  -0.022  0.00  0.00     0.051 A 
HETATM    7  C   UNK     0       2.378  -0.541  -0.020  0.00  0.00     0.052 A 
HETATM    8  C   UNK     0      -0.941  -1.989  -0.085  0.00  0.00     0.076 A 
HETATM    9  C   UNK     0       2.644   0.840   0.057  0.00  0.00     0.061 A 
HETATM   10  C   UNK     0       3.457  -1.428  -0.069  0.00  0.00     0.031 A 
HETATM   11  C   UNK     0       1.488   1.790   0.112  0.00  0.00     0.281 A 
HETATM   12  C   UNK     0       3.958   1.319   0.084  0.00  0.00     0.019 A 
HETATM   13  C   UNK     0       4.770  -0.952  -0.042  0.00  0.00     0.002 A 
HETATM   14  C   UNK     0       5.019   0.417   0.034  0.00  0.00     0.001 A 
ENDROOT
BRANCH   6  15
HETATM   15  C   UNK     0      -2.599  -0.064  -0.012  0.00  0.00    -0.020 A 
HETATM   16  C   UNK     0      -3.699  -0.738   0.538  0.00  0.00     0.012 A 
HETATM   17  C   UNK     0      -4.961  -0.144   0.548  0.00  0.00     0.001 A 
HETATM   18  C   UNK     0      -5.136   1.130   0.007  0.00  0.00     0.000 A 
HETATM   19  C   UNK     0      -4.049   1.810  -0.543  0.00  0.00     0.001 A 
HETATM   20  C   UNK     0      -2.787   1.216  -0.553  0.00  0.00     0.012 A 
ENDBRANCH   6  15
BRANCH   8  21
HETATM   21  O   UNK     0      -1.826  -3.032  -0.162  0.00  0.00    -0.362 OA
HETATM   22  H   UNK     0      -1.306  -3.853  -0.206  0.00  0.00     0.217 HD
ENDBRANCH   8  21
TORSDOF 2
