REMARK  7 active torsions:
REMARK  status: ('A' for Active; 'I' for Inactive)
REMARK    1  A    between atoms: O_2  and  C_5 
REMARK    2  A    between atoms: N_3  and  C_13 
REMARK    3  A    between atoms: N_3  and  C_14 
REMARK    4  A    between atoms: N_4  and  C_18 
REMARK    5  A    between atoms: C_5  and  C_9 
REMARK    6  A    between atoms: C_9  and  C_13 
REMARK    7  A    between atoms: C_14  and  C_15 
ROOT
HETATM    1  N   UNK     0      -0.356  -0.232   0.079  0.00  0.00     0.087 N 
HETATM    2  H   UNK     0      -0.610  -1.212  -0.043  0.00  0.00     0.316 HD
ENDROOT
BRANCH   1   3
HETATM    3  C   UNK     0       1.051  -0.144   0.450  0.00  0.00     0.273 C 
BRANCH   3   4
HETATM    4  C   UNK     0       1.913  -0.810  -0.614  0.00  0.00     0.068 C 
BRANCH   4   5
HETATM    5  C   UNK     0       3.395  -0.748  -0.238  0.00  0.00     0.064 C 
HETATM    6  C   UNK     0       3.833   0.707  -0.007  0.00  0.00     0.075 C 
HETATM    7  C   UNK     0       5.362   0.891   0.134  0.00  0.00     0.056 C 
HETATM    8  O   UNK     0       6.056   0.206  -0.918  0.00  0.00    -0.381 OA
HETATM    9  C   UNK     0       5.697   2.380  -0.049  0.00  0.00     0.045 C 
HETATM   10  C   UNK     0       5.897   0.459   1.508  0.00  0.00     0.045 C 
HETATM   11  C   UNK     0       5.744  -1.178  -1.050  0.00  0.00     0.171 C 
HETATM   12  C   UNK     0       4.261  -1.384  -1.330  0.00  0.00     0.064 C 
BRANCH   5  13
HETATM   13  O   UNK     0       3.554  -1.477   0.979  0.00  0.00    -0.390 OA
HETATM   14  H   UNK     0       3.306  -2.403   0.811  0.00  0.00     0.210 HD
ENDBRANCH   5  13
ENDBRANCH   4   5
ENDBRANCH   3   4
ENDBRANCH   1   3
BRANCH   1  15
HETATM   15  C   UNK     0      -1.202   0.371   1.099  0.00  0.00     0.308 C 
BRANCH  15  16
HETATM   16  C   UNK     0      -2.638   0.272   0.684  0.00  0.00    -0.030 A 
HETATM   17  C   UNK     0      -3.387  -0.842   1.051  0.00  0.00     0.011 A 
HETATM   18  C   UNK     0      -4.724  -0.935   0.664  0.00  0.00     0.030 A 
HETATM   19  C   UNK     0      -5.305   0.086  -0.088  0.00  0.00     0.029 A 
HETATM   20  C   UNK     0      -4.549   1.201  -0.452  0.00  0.00     0.030 A 
HETATM   21  C   UNK     0      -3.213   1.293  -0.066  0.00  0.00     0.011 A 
BRANCH  19  22
HETATM   22  N   UNK     0      -6.657  -0.007  -0.478  0.00  0.00    -0.390 N 
HETATM   23  C   UNK     0      -7.454  -1.153  -0.108  0.00  0.00     0.149 C 
HETATM   24  C   UNK     0      -7.276   1.045  -1.251  0.00  0.00     0.149 C 
ENDBRANCH  19  22
ENDBRANCH  15  16
ENDBRANCH   1  15
TORSDOF 7
