REMARK  8 active torsions:
REMARK  status: ('A' for Active; 'I' for Inactive)
REMARK    1  A    between atoms: O_2  and  C_19 
REMARK    2  A    between atoms: O_2  and  C_24 
REMARK    3  A    between atoms: O_4  and  C_17 
REMARK    4  A    between atoms: N_6  and  C_8 
REMARK    5  A    between atoms: N_6  and  C_11 
REMARK       I    between atoms: N_6  and  C_15 
REMARK    6  A    between atoms: C_8  and  C_9 
REMARK    7  A    between atoms: C_11  and  C_17 
REMARK    8  A    between atoms: C_15  and  C_20 
ROOT
HETATM    1  O   UNK     0       0.050   3.076   0.491  0.00  0.00    -0.268 OA
HETATM    2  N   UNK     0      -1.934   2.287  -0.345  0.00  0.00    -0.322 N 
HETATM    3  C   UNK     0      -0.624   0.914   1.210  0.00  0.00     0.029 A 
HETATM    4  C   UNK     0      -2.744   0.102   0.303  0.00  0.00    -0.006 A 
HETATM    5  C   UNK     0      -1.554  -0.051   1.135  0.00  0.00     0.028 A 
HETATM    6  C   UNK     0      -2.911   1.282  -0.428  0.00  0.00     0.045 A 
HETATM    7  C   UNK     0      -0.795   2.184   0.429  0.00  0.00     0.253 A 
HETATM    8  C   UNK     0      -3.716  -0.900   0.220  0.00  0.00     0.050 A 
HETATM    9  C   UNK     0      -4.035   1.468  -1.235  0.00  0.00     0.033 A 
HETATM   10  C   UNK     0      -4.841  -0.717  -0.586  0.00  0.00     0.069 A 
HETATM   11  C   UNK     0      -5.000   0.464  -1.313  0.00  0.00     0.039 A 
HETATM   12  H   UNK     0      -2.078   3.136  -0.885  0.00  0.00     0.169 HD
ENDROOT
BRANCH   3  13
HETATM   13  C   UNK     0       0.607   0.789   2.053  0.00  0.00     0.170 C 
BRANCH  13  14
HETATM   14  N   UNK     0       1.652   0.197   1.276  0.00  0.00    -0.342 N 
HETATM   15  C   UNK     0       2.530   1.010   0.529  0.00  0.00     0.254 C 
HETATM   16  O   UNK     0       2.475   2.239   0.484  0.00  0.00    -0.267 OA
BRANCH  14  17
HETATM   17  C   UNK     0       1.744  -1.272   1.307  0.00  0.00     0.152 C 
BRANCH  17  18
HETATM   18  C   UNK     0       2.649  -1.750   2.428  0.00  0.00     0.184 C 
BRANCH  18  19
HETATM   19  O   UNK     0       2.677  -3.172   2.438  0.00  0.00    -0.399 OA
HETATM   20  H   UNK     0       3.038  -3.463   1.583  0.00  0.00     0.209 HD
ENDBRANCH  18  19
ENDBRANCH  17  18
ENDBRANCH  14  17
BRANCH  15  21
HETATM   21  C   UNK     0       3.609   0.379  -0.247  0.00  0.00     0.032 A 
HETATM   22  C   UNK     0       4.843   0.170   0.350  0.00  0.00     0.018 A 
HETATM   23  C   UNK     0       5.867  -0.428  -0.385  0.00  0.00     0.020 A 
HETATM   24  C   UNK     0       5.643  -0.812  -1.708  0.00  0.00     0.011 A 
HETATM   25 Br   UNK     0       7.030  -1.621  -2.703  0.00  0.00    -0.051 Br
HETATM   26  C   UNK     0       4.397  -0.596  -2.295  0.00  0.00     0.020 A 
HETATM   27  C   UNK     0       3.374   0.003  -1.560  0.00  0.00     0.018 A 
ENDBRANCH  15  21
ENDBRANCH  13  14
ENDBRANCH   3  13
BRANCH  10  28
HETATM   28  O   UNK     0      -5.786  -1.694  -0.665  0.00  0.00    -0.351 OA
BRANCH  28  29
HETATM   29  C   UNK     0      -7.130  -1.279  -0.908  0.00  0.00     0.171 C 
HETATM   30  C   UNK     0      -8.076  -2.274  -0.272  0.00  0.00     0.034 C 
ENDBRANCH  28  29
ENDBRANCH  10  28
TORSDOF 8
