MODEL 1
REMARK VINA RESULT:      -8.2      0.000      0.000
REMARK  4 active torsions:
REMARK  status: ('A' for Active; 'I' for Inactive)
REMARK    1  A    between atoms: O_1  and  C_14 
REMARK    2  A    between atoms: O_1  and  C_31 
REMARK    3  A    between atoms: O_4  and  C_30 
REMARK    4  A    between atoms: C_9  and  C_16 
ROOT
HETATM    1  O   UNK     0      56.520  57.636  71.617  0.00  0.00    -0.267 OA
HETATM    2  O   UNK     0      56.320  59.811  67.529  0.00  0.00    -0.246 OA
HETATM    3  N   UNK     0      52.515  57.528  69.031  0.00  0.00    -0.229 NA
HETATM    4  N   UNK     0      54.450  58.681  68.309  0.00  0.00    -0.287 N 
HETATM    5  N   UNK     0      56.490  58.649  69.524  0.00  0.00    -0.270 N 
HETATM    6  C   UNK     0      53.946  56.513  71.420  0.00  0.00     0.099 A 
HETATM    7  C   UNK     0      52.494  56.295  71.179  0.00  0.00     0.020 A 
HETATM    8  C   UNK     0      54.537  57.436  70.348  0.00  0.00     0.069 A 
HETATM    9  C   UNK     0      51.914  56.833  69.930  0.00  0.00     0.080 A 
HETATM   10  C   UNK     0      53.846  57.859  69.263  0.00  0.00     0.146 A 
HETATM   11  C   UNK     0      51.513  55.671  71.843  0.00  0.00     0.100 A 
HETATM   12  C   UNK     0      50.515  56.435  69.909  0.00  0.00     0.006 A 
HETATM   13  C   UNK     0      50.271  55.732  71.088  0.00  0.00     0.011 A 
HETATM   14  C   UNK     0      55.937  57.906  70.566  0.00  0.00     0.262 C 
HETATM   15  C   UNK     0      55.789  59.096  68.385  0.00  0.00     0.332 C 
HETATM   16  C   UNK     0      49.544  56.676  68.955  0.00  0.00     0.015 A 
HETATM   17  C   UNK     0      49.003  55.236  71.342  0.00  0.00     0.015 A 
HETATM   18  C   UNK     0      53.650  59.120  67.160  0.00  0.00     0.163 C 
HETATM   19  C   UNK     0      48.267  56.176  69.211  0.00  0.00     0.001 A 
HETATM   20  C   UNK     0      47.999  55.463  70.393  0.00  0.00     0.001 A 
HETATM   21  C   UNK     0      57.884  59.068  69.645  0.00  0.00     0.164 C 
ENDROOT
BRANCH   6  22
HETATM   22  C   UNK     0      54.667  55.198  71.436  0.00  0.00    -0.045 A 
HETATM   23  C   UNK     0      54.807  54.473  70.257  0.00  0.00     0.011 A 
HETATM   24  C   UNK     0      55.477  53.250  70.273  0.00  0.00     0.037 A 
HETATM   25  C   UNK     0      56.002  52.758  71.468  0.00  0.00     0.068 A 
HETATM   26  C   UNK     0      55.858  53.489  72.647  0.00  0.00     0.037 A 
HETATM   27  C   UNK     0      55.188  54.713  72.632  0.00  0.00     0.011 A 
BRANCH  25  28
HETATM   28  O   UNK     0      56.656  51.564  71.483  0.00  0.00    -0.356 OA
HETATM   29  C   UNK     0      55.865  50.389  71.311  0.00  0.00     0.210 C 
ENDBRANCH  25  28
ENDBRANCH   6  22
BRANCH  11  30
HETATM   30  O   UNK     0      51.564  55.022  73.036  0.00  0.00    -0.278 OA
BRANCH  30  31
HETATM   31  C   UNK     0      51.425  55.834  74.144  0.00  0.00     0.260 C 
HETATM   32  O   UNK     0      50.476  56.564  74.400  0.00  0.00    -0.265 OA
HETATM   33  C   UNK     0      52.626  55.691  75.032  0.00  0.00     0.126 C 
ENDBRANCH  30  31
ENDBRANCH  11  30
TORSDOF 4
ENDMDL
MODEL 2
REMARK VINA RESULT:      -7.9     26.221     30.213
REMARK  4 active torsions:
REMARK  status: ('A' for Active; 'I' for Inactive)
REMARK    1  A    between atoms: O_1  and  C_14 
REMARK    2  A    between atoms: O_1  and  C_31 
REMARK    3  A    between atoms: O_4  and  C_30 
REMARK    4  A    between atoms: C_9  and  C_16 
ROOT
HETATM    1  O   UNK     0      71.631  79.575  58.850  0.00  0.00    -0.267 OA
HETATM    2  O   UNK     0      75.669  78.452  56.874  0.00  0.00    -0.246 OA
HETATM    3  N   UNK     0      73.899  75.579  60.123  0.00  0.00    -0.229 NA
HETATM    4  N   UNK     0      74.758  77.045  58.478  0.00  0.00    -0.287 N 
HETATM    5  N   UNK     0      73.705  79.098  57.915  0.00  0.00    -0.270 N 
HETATM    6  C   UNK     0      71.638  77.419  60.660  0.00  0.00     0.099 A 
HETATM    7  C   UNK     0      71.768  76.074  61.283  0.00  0.00     0.020 A 
HETATM    8  C   UNK     0      72.744  77.639  59.621  0.00  0.00     0.069 A 
HETATM    9  C   UNK     0      72.963  75.271  60.949  0.00  0.00     0.080 A 
HETATM   10  C   UNK     0      73.768  76.775  59.425  0.00  0.00     0.146 A 
HETATM   11  C   UNK     0      71.035  75.364  62.152  0.00  0.00     0.100 A 
HETATM   12  C   UNK     0      72.880  74.045  61.727  0.00  0.00     0.006 A 
HETATM   13  C   UNK     0      71.692  74.101  62.456  0.00  0.00     0.011 A 
HETATM   14  C   UNK     0      72.630  78.860  58.771  0.00  0.00     0.262 C 
HETATM   15  C   UNK     0      74.782  78.213  57.700  0.00  0.00     0.332 C 
HETATM   16  C   UNK     0      73.752  72.975  61.784  0.00  0.00     0.015 A 
HETATM   17  C   UNK     0      71.345  73.051  63.288  0.00  0.00     0.015 A 
HETATM   18  C   UNK     0      75.837  76.068  58.299  0.00  0.00     0.163 C 
HETATM   19  C   UNK     0      73.404  71.916  62.622  0.00  0.00     0.001 A 
HETATM   20  C   UNK     0      72.211  71.953  63.367  0.00  0.00     0.001 A 
HETATM   21  C   UNK     0      73.689  80.321  57.116  0.00  0.00     0.164 C 
ENDROOT
BRANCH   6  22
HETATM   22  C   UNK     0      71.690  78.482  61.716  0.00  0.00    -0.045 A 
HETATM   23  C   UNK     0      72.879  78.720  62.397  0.00  0.00     0.011 A 
HETATM   24  C   UNK     0      72.927  79.709  63.380  0.00  0.00     0.037 A 
HETATM   25  C   UNK     0      71.785  80.453  63.676  0.00  0.00     0.068 A 
HETATM   26  C   UNK     0      70.595  80.209  62.990  0.00  0.00     0.037 A 
HETATM   27  C   UNK     0      70.547  79.220  62.007  0.00  0.00     0.011 A 
BRANCH  25  28
HETATM   28  O   UNK     0      71.832  81.418  64.636  0.00  0.00    -0.356 OA
HETATM   29  C   UNK     0      71.693  82.770  64.204  0.00  0.00     0.210 C 
ENDBRANCH  25  28
ENDBRANCH   6  22
BRANCH  11  30
HETATM   30  O   UNK     0      69.856  75.689  62.744  0.00  0.00    -0.278 OA
BRANCH  30  31
HETATM   31  C   UNK     0      69.957  76.058  64.071  0.00  0.00     0.260 C 
HETATM   32  O   UNK     0      70.792  76.808  64.560  0.00  0.00    -0.265 OA
HETATM   33  C   UNK     0      68.861  75.407  64.862  0.00  0.00     0.126 C 
ENDBRANCH  30  31
ENDBRANCH  11  30
TORSDOF 4
ENDMDL
MODEL 3
REMARK VINA RESULT:      -7.9     24.176     28.542
REMARK  4 active torsions:
REMARK  status: ('A' for Active; 'I' for Inactive)
REMARK    1  A    between atoms: O_1  and  C_14 
REMARK    2  A    between atoms: O_1  and  C_31 
REMARK    3  A    between atoms: O_4  and  C_30 
REMARK    4  A    between atoms: C_9  and  C_16 
ROOT
HETATM    1  O   UNK     0      73.821  74.810  60.210  0.00  0.00    -0.267 OA
HETATM    2  O   UNK     0      72.901  78.871  58.173  0.00  0.00    -0.246 OA
HETATM    3  N   UNK     0      72.206  78.481  62.789  0.00  0.00    -0.229 NA
HETATM    4  N   UNK     0      72.580  78.647  60.459  0.00  0.00    -0.287 N 
HETATM    5  N   UNK     0      73.270  76.799  59.137  0.00  0.00    -0.270 N 
HETATM    6  C   UNK     0      72.903  75.601  62.750  0.00  0.00     0.099 A 
HETATM    7  C   UNK     0      72.623  76.361  63.999  0.00  0.00     0.020 A 
HETATM    8  C   UNK     0      72.915  76.541  61.540  0.00  0.00     0.069 A 
HETATM    9  C   UNK     0      72.260  77.787  63.870  0.00  0.00     0.080 A 
HETATM   10  C   UNK     0      72.571  77.848  61.606  0.00  0.00     0.146 A 
HETATM   11  C   UNK     0      72.593  76.053  65.303  0.00  0.00     0.100 A 
HETATM   12  C   UNK     0      71.979  78.274  65.212  0.00  0.00     0.006 A 
HETATM   13  C   UNK     0      72.195  77.211  66.088  0.00  0.00     0.011 A 
HETATM   14  C   UNK     0      73.376  75.958  60.245  0.00  0.00     0.262 C 
HETATM   15  C   UNK     0      72.910  78.161  59.184  0.00  0.00     0.332 C 
HETATM   16  C   UNK     0      71.586  79.532  65.631  0.00  0.00     0.015 A 
HETATM   17  C   UNK     0      72.010  77.392  67.448  0.00  0.00     0.015 A 
HETATM   18  C   UNK     0      72.210  80.060  60.592  0.00  0.00     0.163 C 
HETATM   19  C   UNK     0      71.400  79.715  67.000  0.00  0.00     0.001 A 
HETATM   20  C   UNK     0      71.610  78.655  67.901  0.00  0.00     0.001 A 
HETATM   21  C   UNK     0      73.630  76.258  57.829  0.00  0.00     0.164 C 
ENDROOT
BRANCH   6  22
HETATM   22  C   UNK     0      71.879  74.520  62.567  0.00  0.00    -0.045 A 
HETATM   23  C   UNK     0      72.292  73.209  62.351  0.00  0.00     0.011 A 
HETATM   24  C   UNK     0      71.340  72.204  62.181  0.00  0.00     0.037 A 
HETATM   25  C   UNK     0      69.981  72.516  62.227  0.00  0.00     0.068 A 
HETATM   26  C   UNK     0      69.574  73.833  62.443  0.00  0.00     0.037 A 
HETATM   27  C   UNK     0      70.526  74.838  62.614  0.00  0.00     0.011 A 
BRANCH  25  28
HETATM   28  O   UNK     0      69.052  71.534  62.060  0.00  0.00    -0.356 OA
HETATM   29  C   UNK     0      67.732  71.943  61.707  0.00  0.00     0.210 C 
ENDBRANCH  25  28
ENDBRANCH   6  22
BRANCH  11  30
HETATM   30  O   UNK     0      72.851  74.863  65.908  0.00  0.00    -0.278 OA
BRANCH  30  31
HETATM   31  C   UNK     0      71.789  73.982  65.927  0.00  0.00     0.260 C 
HETATM   32  O   UNK     0      70.602  74.268  66.020  0.00  0.00    -0.265 OA
HETATM   33  C   UNK     0      72.296  72.575  65.801  0.00  0.00     0.126 C 
ENDBRANCH  30  31
ENDBRANCH  11  30
TORSDOF 4
ENDMDL
MODEL 4
REMARK VINA RESULT:      -7.8      2.759      6.105
REMARK  4 active torsions:
REMARK  status: ('A' for Active; 'I' for Inactive)
REMARK    1  A    between atoms: O_1  and  C_14 
REMARK    2  A    between atoms: O_1  and  C_31 
REMARK    3  A    between atoms: O_4  and  C_30 
REMARK    4  A    between atoms: C_9  and  C_16 
ROOT
HETATM    1  O   UNK     0      54.128  53.756  67.125  0.00  0.00    -0.267 OA
HETATM    2  O   UNK     0      56.758  50.162  68.404  0.00  0.00    -0.246 OA
HETATM    3  N   UNK     0      54.893  52.863  71.746  0.00  0.00    -0.229 NA
HETATM    4  N   UNK     0      55.809  51.512  70.034  0.00  0.00    -0.287 N 
HETATM    5  N   UNK     0      55.538  52.009  67.727  0.00  0.00    -0.270 N 
HETATM    6  C   UNK     0      53.750  54.723  69.741  0.00  0.00     0.099 A 
HETATM    7  C   UNK     0      53.496  54.835  71.204  0.00  0.00     0.020 A 
HETATM    8  C   UNK     0      54.550  53.453  69.430  0.00  0.00     0.069 A 
HETATM    9  C   UNK     0      54.154  53.856  72.094  0.00  0.00     0.080 A 
HETATM   10  C   UNK     0      55.068  52.644  70.384  0.00  0.00     0.146 A 
HETATM   11  C   UNK     0      52.791  55.673  71.975  0.00  0.00     0.100 A 
HETATM   12  C   UNK     0      53.798  54.219  73.457  0.00  0.00     0.006 A 
HETATM   13  C   UNK     0      52.954  55.327  73.379  0.00  0.00     0.011 A 
HETATM   14  C   UNK     0      54.712  53.101  67.988  0.00  0.00     0.262 C 
HETATM   15  C   UNK     0      56.090  51.156  68.705  0.00  0.00     0.332 C 
HETATM   16  C   UNK     0      54.165  53.629  74.652  0.00  0.00     0.015 A 
HETATM   17  C   UNK     0      52.447  55.887  74.539  0.00  0.00     0.015 A 
HETATM   18  C   UNK     0      56.335  50.664  71.108  0.00  0.00     0.163 C 
HETATM   19  C   UNK     0      53.655  54.193  75.821  0.00  0.00     0.001 A 
HETATM   20  C   UNK     0      52.803  55.312  75.765  0.00  0.00     0.001 A 
HETATM   21  C   UNK     0      55.800  51.665  66.332  0.00  0.00     0.164 C 
ENDROOT
BRANCH   6  22
HETATM   22  C   UNK     0      54.480  55.939  69.252  0.00  0.00    -0.045 A 
HETATM   23  C   UNK     0      53.827  56.850  68.429  0.00  0.00     0.011 A 
HETATM   24  C   UNK     0      54.507  57.981  67.974  0.00  0.00     0.037 A 
HETATM   25  C   UNK     0      55.835  58.192  68.345  0.00  0.00     0.068 A 
HETATM   26  C   UNK     0      56.484  57.274  69.170  0.00  0.00     0.037 A 
HETATM   27  C   UNK     0      55.805  56.143  69.625  0.00  0.00     0.011 A 
BRANCH  25  28
HETATM   28  O   UNK     0      56.497  59.295  67.900  0.00  0.00    -0.356 OA
HETATM   29  C   UNK     0      55.707  60.433  67.559  0.00  0.00     0.210 C 
ENDBRANCH  25  28
ENDBRANCH   6  22
BRANCH  11  30
HETATM   30  O   UNK     0      52.026  56.735  71.611  0.00  0.00    -0.278 OA
BRANCH  30  31
HETATM   31  C   UNK     0      50.764  56.410  71.154  0.00  0.00     0.260 C 
HETATM   32  O   UNK     0      49.950  55.684  71.709  0.00  0.00    -0.265 OA
HETATM   33  C   UNK     0      50.506  57.099  69.846  0.00  0.00     0.126 C 
ENDBRANCH  30  31
ENDBRANCH  11  30
TORSDOF 4
ENDMDL
MODEL 5
REMARK VINA RESULT:      -7.8     25.768     29.901
REMARK  4 active torsions:
REMARK  status: ('A' for Active; 'I' for Inactive)
REMARK    1  A    between atoms: O_1  and  C_14 
REMARK    2  A    between atoms: O_1  and  C_31 
REMARK    3  A    between atoms: O_4  and  C_30 
REMARK    4  A    between atoms: C_9  and  C_16 
ROOT
HETATM    1  O   UNK     0      69.266  75.874  64.086  0.00  0.00    -0.267 OA
HETATM    2  O   UNK     0      69.575  79.179  67.320  0.00  0.00    -0.246 OA
HETATM    3  N   UNK     0      72.483  79.367  63.653  0.00  0.00    -0.229 NA
HETATM    4  N   UNK     0      70.992  79.249  65.485  0.00  0.00    -0.287 N 
HETATM    5  N   UNK     0      69.464  77.454  65.780  0.00  0.00    -0.270 N 
HETATM    6  C   UNK     0      71.463  76.796  62.587  0.00  0.00     0.099 A 
HETATM    7  C   UNK     0      72.451  77.648  61.870  0.00  0.00     0.020 A 
HETATM    8  C   UNK     0      70.964  77.501  63.853  0.00  0.00     0.069 A 
HETATM    9  C   UNK     0      72.896  78.892  62.531  0.00  0.00     0.080 A 
HETATM   10  C   UNK     0      71.476  78.669  64.309  0.00  0.00     0.146 A 
HETATM   11  C   UNK     0      73.103  77.555  60.703  0.00  0.00     0.100 A 
HETATM   12  C   UNK     0      73.893  79.499  61.662  0.00  0.00     0.006 A 
HETATM   13  C   UNK     0      74.010  78.681  60.539  0.00  0.00     0.011 A 
HETATM   14  C   UNK     0      69.824  76.858  64.572  0.00  0.00     0.262 C 
HETATM   15  C   UNK     0      69.987  78.667  66.274  0.00  0.00     0.332 C 
HETATM   16  C   UNK     0      74.621  80.662  61.831  0.00  0.00     0.015 A 
HETATM   17  C   UNK     0      74.891  79.024  59.528  0.00  0.00     0.015 A 
HETATM   18  C   UNK     0      71.575  80.520  65.925  0.00  0.00     0.163 C 
HETATM   19  C   UNK     0      75.509  81.007  60.814  0.00  0.00     0.001 A 
HETATM   20  C   UNK     0      75.643  80.196  59.672  0.00  0.00     0.001 A 
HETATM   21  C   UNK     0      68.409  76.823  66.569  0.00  0.00     0.164 C 
ENDROOT
BRANCH   6  22
HETATM   22  C   UNK     0      72.080  75.473  62.930  0.00  0.00    -0.045 A 
HETATM   23  C   UNK     0      73.048  75.401  63.926  0.00  0.00     0.011 A 
HETATM   24  C   UNK     0      73.622  74.170  64.245  0.00  0.00     0.037 A 
HETATM   25  C   UNK     0      73.224  73.019  63.565  0.00  0.00     0.068 A 
HETATM   26  C   UNK     0      72.252  73.098  62.567  0.00  0.00     0.037 A 
HETATM   27  C   UNK     0      71.679  74.329  62.248  0.00  0.00     0.011 A 
BRANCH  25  28
HETATM   28  O   UNK     0      73.784  71.817  63.876  0.00  0.00    -0.356 OA
HETATM   29  C   UNK     0      72.895  70.750  64.201  0.00  0.00     0.210 C 
ENDBRANCH  25  28
ENDBRANCH   6  22
BRANCH  11  30
HETATM   30  O   UNK     0      73.027  76.585  59.754  0.00  0.00    -0.278 OA
BRANCH  30  31
HETATM   31  C   UNK     0      74.097  75.714  59.729  0.00  0.00     0.260 C 
HETATM   32  O   UNK     0      74.649  75.206  60.697  0.00  0.00    -0.265 OA
HETATM   33  C   UNK     0      74.503  75.450  58.309  0.00  0.00     0.126 C 
ENDBRANCH  30  31
ENDBRANCH  11  30
TORSDOF 4
ENDMDL
MODEL 6
REMARK VINA RESULT:      -7.8     22.523     27.891
REMARK  4 active torsions:
REMARK  status: ('A' for Active; 'I' for Inactive)
REMARK    1  A    between atoms: O_1  and  C_14 
REMARK    2  A    between atoms: O_1  and  C_31 
REMARK    3  A    between atoms: O_4  and  C_30 
REMARK    4  A    between atoms: C_9  and  C_16 
ROOT
HETATM    1  O   UNK     0      71.755  73.216  65.350  0.00  0.00    -0.267 OA
HETATM    2  O   UNK     0      74.055  70.573  62.316  0.00  0.00    -0.246 OA
HETATM    3  N   UNK     0      72.735  74.866  60.985  0.00  0.00    -0.229 NA
HETATM    4  N   UNK     0      73.397  72.709  61.694  0.00  0.00    -0.287 N 
HETATM    5  N   UNK     0      72.817  71.824  63.820  0.00  0.00    -0.270 N 
HETATM    6  C   UNK     0      71.313  75.329  63.544  0.00  0.00     0.099 A 
HETATM    7  C   UNK     0      71.471  76.370  62.492  0.00  0.00     0.020 A 
HETATM    8  C   UNK     0      72.098  74.066  63.172  0.00  0.00     0.069 A 
HETATM    9  C   UNK     0      72.179  75.994  61.251  0.00  0.00     0.080 A 
HETATM   10  C   UNK     0      72.717  73.895  61.980  0.00  0.00     0.146 A 
HETATM   11  C   UNK     0      71.086  77.648  62.366  0.00  0.00     0.100 A 
HETATM   12  C   UNK     0      72.141  77.155  60.375  0.00  0.00     0.006 A 
HETATM   13  C   UNK     0      71.480  78.169  61.066  0.00  0.00     0.011 A 
HETATM   14  C   UNK     0      72.197  73.008  64.220  0.00  0.00     0.262 C 
HETATM   15  C   UNK     0      73.464  71.624  62.583  0.00  0.00     0.332 C 
HETATM   16  C   UNK     0      72.649  77.315  59.099  0.00  0.00     0.015 A 
HETATM   17  C   UNK     0      71.304  79.406  60.470  0.00  0.00     0.015 A 
HETATM   18  C   UNK     0      74.061  72.583  60.392  0.00  0.00     0.163 C 
HETATM   19  C   UNK     0      72.473  78.561  58.498  0.00  0.00     0.001 A 
HETATM   20  C   UNK     0      71.807  79.598  59.177  0.00  0.00     0.001 A 
HETATM   21  C   UNK     0      72.873  70.722  64.777  0.00  0.00     0.164 C 
ENDROOT
BRANCH   6  22
HETATM   22  C   UNK     0      69.860  75.009  63.735  0.00  0.00    -0.045 A 
HETATM   23  C   UNK     0      69.218  75.392  64.908  0.00  0.00     0.011 A 
HETATM   24  C   UNK     0      67.867  75.093  65.086  0.00  0.00     0.037 A 
HETATM   25  C   UNK     0      67.167  74.413  64.090  0.00  0.00     0.068 A 
HETATM   26  C   UNK     0      67.816  74.032  62.916  0.00  0.00     0.037 A 
HETATM   27  C   UNK     0      69.167  74.330  62.738  0.00  0.00     0.011 A 
BRANCH  25  28
HETATM   28  O   UNK     0      65.848  74.122  64.264  0.00  0.00    -0.356 OA
HETATM   29  C   UNK     0      65.477  72.745  64.232  0.00  0.00     0.210 C 
ENDBRANCH  25  28
ENDBRANCH   6  22
BRANCH  11  30
HETATM   30  O   UNK     0      70.403  78.427  63.245  0.00  0.00    -0.278 OA
BRANCH  30  31
HETATM   31  C   UNK     0      71.156  78.915  64.293  0.00  0.00     0.260 C 
HETATM   32  O   UNK     0      72.308  79.327  64.236  0.00  0.00    -0.265 OA
HETATM   33  C   UNK     0      70.347  78.886  65.556  0.00  0.00     0.126 C 
ENDBRANCH  30  31
ENDBRANCH  11  30
TORSDOF 4
ENDMDL
MODEL 7
REMARK VINA RESULT:      -7.7     22.717     27.101
REMARK  4 active torsions:
REMARK  status: ('A' for Active; 'I' for Inactive)
REMARK    1  A    between atoms: O_1  and  C_14 
REMARK    2  A    between atoms: O_1  and  C_31 
REMARK    3  A    between atoms: O_4  and  C_30 
REMARK    4  A    between atoms: C_9  and  C_16 
ROOT
HETATM    1  O   UNK     0      72.935  77.150  64.864  0.00  0.00    -0.267 OA
HETATM    2  O   UNK     0      69.955  79.445  67.572  0.00  0.00    -0.246 OA
HETATM    3  N   UNK     0      68.360  75.821  65.069  0.00  0.00    -0.229 NA
HETATM    4  N   UNK     0      69.201  77.638  66.329  0.00  0.00    -0.287 N 
HETATM    5  N   UNK     0      71.447  78.390  66.152  0.00  0.00    -0.270 N 
HETATM    6  C   UNK     0      70.989  75.447  63.753  0.00  0.00     0.099 A 
HETATM    7  C   UNK     0      69.834  74.529  63.556  0.00  0.00     0.020 A 
HETATM    8  C   UNK     0      70.664  76.499  64.819  0.00  0.00     0.069 A 
HETATM    9  C   UNK     0      68.571  74.851  64.252  0.00  0.00     0.080 A 
HETATM   10  C   UNK     0      69.439  76.642  65.378  0.00  0.00     0.146 A 
HETATM   11  C   UNK     0      69.627  73.418  62.837  0.00  0.00     0.100 A 
HETATM   12  C   UNK     0      67.598  73.849  63.847  0.00  0.00     0.006 A 
HETATM   13  C   UNK     0      68.252  72.966  62.988  0.00  0.00     0.011 A 
HETATM   14  C   UNK     0      71.792  77.368  65.268  0.00  0.00     0.262 C 
HETATM   15  C   UNK     0      70.177  78.558  66.742  0.00  0.00     0.332 C 
HETATM   16  C   UNK     0      66.270  73.712  64.205  0.00  0.00     0.015 A 
HETATM   17  C   UNK     0      67.562  71.894  62.449  0.00  0.00     0.015 A 
HETATM   18  C   UNK     0      67.859  77.739  66.911  0.00  0.00     0.163 C 
HETATM   19  C   UNK     0      65.574  72.632  63.663  0.00  0.00     0.001 A 
HETATM   20  C   UNK     0      66.214  71.731  62.793  0.00  0.00     0.001 A 
HETATM   21  C   UNK     0      72.493  79.322  66.564  0.00  0.00     0.164 C 
ENDROOT
BRANCH   6  22
HETATM   22  C   UNK     0      71.349  76.106  62.454  0.00  0.00    -0.045 A 
HETATM   23  C   UNK     0      70.511  77.080  61.921  0.00  0.00     0.011 A 
HETATM   24  C   UNK     0      70.845  77.693  60.713  0.00  0.00     0.037 A 
HETATM   25  C   UNK     0      72.015  77.328  60.047  0.00  0.00     0.068 A 
HETATM   26  C   UNK     0      72.851  76.350  60.587  0.00  0.00     0.037 A 
HETATM   27  C   UNK     0      72.516  75.737  61.795  0.00  0.00     0.011 A 
BRANCH  25  28
HETATM   28  O   UNK     0      72.341  77.927  58.868  0.00  0.00    -0.356 OA
HETATM   29  C   UNK     0      72.835  77.085  57.827  0.00  0.00     0.210 C 
ENDBRANCH  25  28
ENDBRANCH   6  22
BRANCH  11  30
HETATM   30  O   UNK     0      70.490  72.744  62.032  0.00  0.00    -0.278 OA
BRANCH  30  31
HETATM   31  C   UNK     0      71.481  72.050  62.698  0.00  0.00     0.260 C 
HETATM   32  O   UNK     0      71.369  71.459  63.764  0.00  0.00    -0.265 OA
HETATM   33  C   UNK     0      72.757  72.107  61.910  0.00  0.00     0.126 C 
ENDBRANCH  30  31
ENDBRANCH  11  30
TORSDOF 4
ENDMDL
MODEL 8
REMARK VINA RESULT:      -7.6      3.421      6.809
REMARK  4 active torsions:
REMARK  status: ('A' for Active; 'I' for Inactive)
REMARK    1  A    between atoms: O_1  and  C_14 
REMARK    2  A    between atoms: O_1  and  C_31 
REMARK    3  A    between atoms: O_4  and  C_30 
REMARK    4  A    between atoms: C_9  and  C_16 
ROOT
HETATM    1  O   UNK     0      52.424  50.749  69.547  0.00  0.00    -0.267 OA
HETATM    2  O   UNK     0      54.052  50.184  65.245  0.00  0.00    -0.246 OA
HETATM    3  N   UNK     0      55.312  54.019  67.623  0.00  0.00    -0.229 NA
HETATM    4  N   UNK     0      54.666  52.066  66.455  0.00  0.00    -0.287 N 
HETATM    5  N   UNK     0      53.136  50.485  67.350  0.00  0.00    -0.270 N 
HETATM    6  C   UNK     0      53.564  53.297  69.905  0.00  0.00     0.099 A 
HETATM    7  C   UNK     0      54.489  54.464  69.916  0.00  0.00     0.020 A 
HETATM    8  C   UNK     0      53.755  52.471  68.628  0.00  0.00     0.069 A 
HETATM    9  C   UNK     0      55.282  54.725  68.697  0.00  0.00     0.080 A 
HETATM   10  C   UNK     0      54.553  52.853  67.604  0.00  0.00     0.146 A 
HETATM   11  C   UNK     0      54.788  55.419  70.806  0.00  0.00     0.100 A 
HETATM   12  C   UNK     0      56.045  55.939  68.942  0.00  0.00     0.006 A 
HETATM   13  C   UNK     0      55.748  56.355  70.239  0.00  0.00     0.011 A 
HETATM   14  C   UNK     0      53.039  51.163  68.564  0.00  0.00     0.262 C 
HETATM   15  C   UNK     0      53.958  50.868  66.270  0.00  0.00     0.332 C 
HETATM   16  C   UNK     0      56.927  56.609  68.115  0.00  0.00     0.015 A 
HETATM   17  C   UNK     0      56.346  57.494  70.750  0.00  0.00     0.015 A 
HETATM   18  C   UNK     0      55.555  52.522  65.382  0.00  0.00     0.163 C 
HETATM   19  C   UNK     0      57.531  57.757  68.629  0.00  0.00     0.001 A 
HETATM   20  C   UNK     0      57.243  58.196  69.934  0.00  0.00     0.001 A 
HETATM   21  C   UNK     0      52.391  49.238  67.199  0.00  0.00     0.164 C 
ENDROOT
BRANCH   6  22
HETATM   22  C   UNK     0      52.144  53.767  70.021  0.00  0.00    -0.045 A 
HETATM   23  C   UNK     0      51.433  53.528  71.192  0.00  0.00     0.011 A 
HETATM   24  C   UNK     0      50.112  53.965  71.300  0.00  0.00     0.037 A 
HETATM   25  C   UNK     0      49.511  54.636  70.235  0.00  0.00     0.068 A 
HETATM   26  C   UNK     0      50.230  54.872  69.063  0.00  0.00     0.037 A 
HETATM   27  C   UNK     0      51.550  54.435  68.955  0.00  0.00     0.011 A 
BRANCH  25  28
HETATM   28  O   UNK     0      48.222  55.062  70.340  0.00  0.00    -0.356 OA
HETATM   29  C   UNK     0      47.763  55.992  69.361  0.00  0.00     0.210 C 
ENDBRANCH  25  28
ENDBRANCH   6  22
BRANCH  11  30
HETATM   30  O   UNK     0      54.309  55.599  72.064  0.00  0.00    -0.278 OA
BRANCH  30  31
HETATM   31  C   UNK     0      54.765  54.685  72.993  0.00  0.00     0.260 C 
HETATM   32  O   UNK     0      55.863  54.144  73.008  0.00  0.00    -0.265 OA
HETATM   33  C   UNK     0      53.705  54.443  74.028  0.00  0.00     0.126 C 
ENDBRANCH  30  31
ENDBRANCH  11  30
TORSDOF 4
ENDMDL
MODEL 9
REMARK VINA RESULT:      -7.6      2.273      6.384
REMARK  4 active torsions:
REMARK  status: ('A' for Active; 'I' for Inactive)
REMARK    1  A    between atoms: O_1  and  C_14 
REMARK    2  A    between atoms: O_1  and  C_31 
REMARK    3  A    between atoms: O_4  and  C_30 
REMARK    4  A    between atoms: C_9  and  C_16 
ROOT
HETATM    1  O   UNK     0      50.601  52.838  72.995  0.00  0.00    -0.267 OA
HETATM    2  O   UNK     0      47.418  55.464  70.884  0.00  0.00    -0.246 OA
HETATM    3  N   UNK     0      51.929  56.648  70.454  0.00  0.00    -0.229 NA
HETATM    4  N   UNK     0      49.662  56.015  70.682  0.00  0.00    -0.287 N 
HETATM    5  N   UNK     0      48.970  54.192  72.038  0.00  0.00    -0.270 N 
HETATM    6  C   UNK     0      52.775  54.480  72.291  0.00  0.00     0.099 A 
HETATM    7  C   UNK     0      53.731  55.354  71.556  0.00  0.00     0.020 A 
HETATM    8  C   UNK     0      51.335  54.772  71.853  0.00  0.00     0.069 A 
HETATM    9  C   UNK     0      53.171  56.416  70.695  0.00  0.00     0.080 A 
HETATM   10  C   UNK     0      50.997  55.787  71.024  0.00  0.00     0.146 A 
HETATM   11  C   UNK     0      55.066  55.444  71.492  0.00  0.00     0.100 A 
HETATM   12  C   UNK     0      54.299  57.156  70.150  0.00  0.00     0.006 A 
HETATM   13  C   UNK     0      55.459  56.550  70.633  0.00  0.00     0.011 A 
HETATM   14  C   UNK     0      50.282  53.841  72.355  0.00  0.00     0.262 C 
HETATM   15  C   UNK     0      48.597  55.247  71.180  0.00  0.00     0.332 C 
HETATM   16  C   UNK     0      54.312  58.247  69.301  0.00  0.00     0.015 A 
HETATM   17  C   UNK     0      56.698  57.046  70.265  0.00  0.00     0.015 A 
HETATM   18  C   UNK     0      49.355  57.121  69.769  0.00  0.00     0.163 C 
HETATM   19  C   UNK     0      55.560  58.747  68.930  0.00  0.00     0.001 A 
HETATM   20  C   UNK     0      56.742  58.152  69.408  0.00  0.00     0.001 A 
HETATM   21  C   UNK     0      47.891  53.364  72.569  0.00  0.00     0.164 C 
ENDROOT
BRANCH   6  22
HETATM   22  C   UNK     0      52.927  54.682  73.769  0.00  0.00    -0.045 A 
HETATM   23  C   UNK     0      52.379  55.810  74.371  0.00  0.00     0.011 A 
HETATM   24  C   UNK     0      52.521  55.997  75.746  0.00  0.00     0.037 A 
HETATM   25  C   UNK     0      53.209  55.056  76.511  0.00  0.00     0.068 A 
HETATM   26  C   UNK     0      53.757  53.927  75.901  0.00  0.00     0.037 A 
HETATM   27  C   UNK     0      53.615  53.739  74.526  0.00  0.00     0.011 A 
BRANCH  25  28
HETATM   28  O   UNK     0      53.347  55.239  77.853  0.00  0.00    -0.356 OA
HETATM   29  C   UNK     0      54.675  55.248  78.374  0.00  0.00     0.210 C 
ENDBRANCH  25  28
ENDBRANCH   6  22
BRANCH  11  30
HETATM   30  O   UNK     0      56.007  54.686  72.115  0.00  0.00    -0.278 OA
BRANCH  30  31
HETATM   31  C   UNK     0      56.098  53.386  71.658  0.00  0.00     0.260 C 
HETATM   32  O   UNK     0      55.865  52.992  70.523  0.00  0.00    -0.265 OA
HETATM   33  C   UNK     0      56.552  52.488  72.772  0.00  0.00     0.126 C 
ENDBRANCH  30  31
ENDBRANCH  11  30
TORSDOF 4
ENDMDL
