MODEL 1
REMARK VINA RESULT:      -9.2      0.000      0.000
REMARK  1 active torsions:
REMARK  status: ('A' for Active; 'I' for Inactive)
REMARK    1  A    between atoms: C_19  and  C_21 
ROOT
HETATM    1  O   UNK     0      67.855  72.645  63.037  0.00  0.00    -0.273 OA
HETATM    2  O   UNK     0      65.742  71.992  62.471  0.00  0.00    -0.259 OA
HETATM    3  N   UNK     0      72.388  74.055  64.104  0.00  0.00    -0.380 N 
HETATM    4  C   UNK     0      71.005  74.222  64.214  0.00  0.00     0.045 A 
HETATM    5  C   UNK     0      70.111  73.320  63.592  0.00  0.00     0.004 A 
HETATM    6  C   UNK     0      72.916  73.102  63.133  0.00  0.00     0.123 C 
HETATM    7  C   UNK     0      73.277  75.114  64.576  0.00  0.00     0.123 C 
HETATM    8  C   UNK     0      70.463  75.280  64.985  0.00  0.00    -0.030 A 
HETATM    9  C   UNK     0      70.635  72.165  62.772  0.00  0.00     0.045 C 
HETATM   10  C   UNK     0      72.078  71.832  63.131  0.00  0.00     0.025 C 
HETATM   11  C   UNK     0      72.763  75.695  65.886  0.00  0.00     0.024 C 
HETATM   12  C   UNK     0      71.366  76.267  65.685  0.00  0.00     0.042 C 
HETATM   13  C   UNK     0      68.727  73.536  63.702  0.00  0.00     0.098 A 
HETATM   14  C   UNK     0      69.073  75.462  65.079  0.00  0.00     0.023 A 
HETATM   15  C   UNK     0      68.198  74.590  64.433  0.00  0.00     0.000 A 
HETATM   16  C   UNK     0      66.756  74.754  64.509  0.00  0.00     0.035 A 
HETATM   17  C   UNK     0      65.931  73.906  63.876  0.00  0.00     0.086 A 
HETATM   18  C   UNK     0      66.469  72.775  63.075  0.00  0.00     0.302 A 
ENDROOT
BRANCH  17  19
HETATM   19  C   UNK     0      64.517  74.093  63.978  0.00  0.00     0.145 A 
HETATM   20  N   UNK     0      63.751  72.981  64.195  0.00  0.00    -0.338 N 
HETATM   21  C   UNK     0      62.440  73.383  64.260  0.00  0.00     0.062 A 
HETATM   22  H   UNK     0      64.076  72.030  64.304  0.00  0.00     0.167 HD
HETATM   23  C   UNK     0      62.490  74.760  64.072  0.00  0.00     0.086 A 
HETATM   24  C   UNK     0      61.253  72.679  64.461  0.00  0.00     0.032 A 
HETATM   25  N   UNK     0      63.788  75.184  63.898  0.00  0.00    -0.228 NA
HETATM   26  C   UNK     0      61.294  75.497  64.081  0.00  0.00     0.034 A 
HETATM   27  C   UNK     0      60.089  74.811  64.282  0.00  0.00     0.002 A 
HETATM   28  C   UNK     0      60.072  73.427  64.468  0.00  0.00     0.002 A 
ENDBRANCH  17  19
TORSDOF 1
ENDMDL
MODEL 2
REMARK VINA RESULT:      -9.2      2.105      8.785
REMARK  1 active torsions:
REMARK  status: ('A' for Active; 'I' for Inactive)
REMARK    1  A    between atoms: C_19  and  C_21 
ROOT
HETATM    1  O   UNK     0      66.263  73.605  64.633  0.00  0.00    -0.273 OA
HETATM    2  O   UNK     0      68.429  73.659  65.352  0.00  0.00    -0.259 OA
HETATM    3  N   UNK     0      61.620  73.608  63.178  0.00  0.00    -0.380 N 
HETATM    4  C   UNK     0      62.986  73.647  62.885  0.00  0.00     0.045 A 
HETATM    5  C   UNK     0      63.953  73.571  63.914  0.00  0.00     0.004 A 
HETATM    6  C   UNK     0      61.183  73.749  64.563  0.00  0.00     0.123 C 
HETATM    7  C   UNK     0      60.654  73.900  62.122  0.00  0.00     0.123 C 
HETATM    8  C   UNK     0      63.438  73.726  61.545  0.00  0.00    -0.030 A 
HETATM    9  C   UNK     0      63.527  73.468  65.359  0.00  0.00     0.045 C 
HETATM   10  C   UNK     0      62.097  72.960  65.488  0.00  0.00     0.025 C 
HETATM   11  C   UNK     0      61.089  73.259  60.811  0.00  0.00     0.024 C 
HETATM   12  C   UNK     0      62.454  73.796  60.402  0.00  0.00     0.042 C 
HETATM   13  C   UNK     0      65.318  73.641  63.584  0.00  0.00     0.098 A 
HETATM   14  C   UNK     0      64.811  73.788  61.251  0.00  0.00     0.023 A 
HETATM   15  C   UNK     0      65.757  73.748  62.272  0.00  0.00     0.000 A 
HETATM   16  C   UNK     0      67.184  73.813  62.001  0.00  0.00     0.035 A 
HETATM   17  C   UNK     0      68.078  73.779  63.000  0.00  0.00     0.086 A 
HETATM   18  C   UNK     0      67.637  73.676  64.415  0.00  0.00     0.302 A 
ENDROOT
BRANCH  17  19
HETATM   19  C   UNK     0      69.474  73.837  62.694  0.00  0.00     0.145 A 
HETATM   20  N   UNK     0      70.152  72.651  62.627  0.00  0.00    -0.338 N 
HETATM   21  C   UNK     0      71.460  72.934  62.326  0.00  0.00     0.062 A 
HETATM   22  H   UNK     0      69.770  71.724  62.761  0.00  0.00     0.167 HD
HETATM   23  C   UNK     0      71.501  74.321  62.225  0.00  0.00     0.086 A 
HETATM   24  C   UNK     0      72.577  72.118  62.139  0.00  0.00     0.032 A 
HETATM   25  N   UNK     0      70.258  74.865  62.457  0.00  0.00    -0.228 NA
HETATM   26  C   UNK     0      72.719  74.950  61.921  0.00  0.00     0.034 A 
HETATM   27  C   UNK     0      73.854  74.151  61.728  0.00  0.00     0.002 A 
HETATM   28  C   UNK     0      73.782  72.761  61.837  0.00  0.00     0.002 A 
ENDBRANCH  17  19
TORSDOF 1
ENDMDL
MODEL 3
REMARK VINA RESULT:      -8.9      7.419     10.187
REMARK  1 active torsions:
REMARK  status: ('A' for Active; 'I' for Inactive)
REMARK    1  A    between atoms: C_19  and  C_21 
ROOT
HETATM    1  O   UNK     0      73.022  77.362  59.720  0.00  0.00    -0.273 OA
HETATM    2  O   UNK     0      71.940  76.682  61.611  0.00  0.00    -0.259 OA
HETATM    3  N   UNK     0      75.371  78.930  55.757  0.00  0.00    -0.380 N 
HETATM    4  C   UNK     0      75.165  77.964  56.746  0.00  0.00     0.045 A 
HETATM    5  C   UNK     0      74.162  78.131  57.729  0.00  0.00     0.004 A 
HETATM    6  C   UNK     0      74.729  80.233  55.889  0.00  0.00     0.123 C 
HETATM    7  C   UNK     0      76.543  78.828  54.892  0.00  0.00     0.123 C 
HETATM    8  C   UNK     0      75.931  76.772  56.765  0.00  0.00    -0.030 A 
HETATM    9  C   UNK     0      73.305  79.375  57.745  0.00  0.00     0.045 C 
HETATM   10  C   UNK     0      73.301  80.070  56.390  0.00  0.00     0.025 C 
HETATM   11  C   UNK     0      76.784  77.380  54.490  0.00  0.00     0.024 C 
HETATM   12  C   UNK     0      77.006  76.529  55.734  0.00  0.00     0.042 C 
HETATM   13  C   UNK     0      74.002  77.152  58.724  0.00  0.00     0.098 A 
HETATM   14  C   UNK     0      75.739  75.810  57.772  0.00  0.00     0.023 A 
HETATM   15  C   UNK     0      74.774  75.999  58.759  0.00  0.00     0.000 A 
HETATM   16  C   UNK     0      74.554  75.024  59.814  0.00  0.00     0.035 A 
HETATM   17  C   UNK     0      73.622  75.228  60.758  0.00  0.00     0.086 A 
HETATM   18  C   UNK     0      72.789  76.458  60.753  0.00  0.00     0.302 A 
ENDROOT
BRANCH  17  19
HETATM   19  C   UNK     0      73.428  74.243  61.777  0.00  0.00     0.145 A 
HETATM   20  N   UNK     0      73.481  74.666  63.077  0.00  0.00    -0.338 N 
HETATM   21  C   UNK     0      73.272  73.575  63.880  0.00  0.00     0.062 A 
HETATM   22  H   UNK     0      73.633  75.612  63.403  0.00  0.00     0.167 HD
HETATM   23  C   UNK     0      73.099  72.518  62.992  0.00  0.00     0.086 A 
HETATM   24  C   UNK     0      73.220  73.427  65.267  0.00  0.00     0.032 A 
HETATM   25  N   UNK     0      73.201  72.952  61.690  0.00  0.00    -0.228 NA
HETATM   26  C   UNK     0      72.861  71.230  63.498  0.00  0.00     0.034 A 
HETATM   27  C   UNK     0      72.805  71.057  64.887  0.00  0.00     0.002 A 
HETATM   28  C   UNK     0      72.982  72.138  65.754  0.00  0.00     0.002 A 
ENDBRANCH  17  19
TORSDOF 1
ENDMDL
MODEL 4
REMARK VINA RESULT:      -8.7      5.980     10.675
REMARK  1 active torsions:
REMARK  status: ('A' for Active; 'I' for Inactive)
REMARK    1  A    between atoms: C_19  and  C_21 
ROOT
HETATM    1  O   UNK     0      71.929  76.520  60.462  0.00  0.00    -0.273 OA
HETATM    2  O   UNK     0      72.163  77.686  58.513  0.00  0.00    -0.259 OA
HETATM    3  N   UNK     0      71.316  73.969  64.560  0.00  0.00    -0.380 N 
HETATM    4  C   UNK     0      72.103  74.346  63.469  0.00  0.00     0.045 A 
HETATM    5  C   UNK     0      71.631  75.282  62.519  0.00  0.00     0.004 A 
HETATM    6  C   UNK     0      69.906  74.343  64.585  0.00  0.00     0.123 C 
HETATM    7  C   UNK     0      71.744  72.853  65.399  0.00  0.00     0.123 C 
HETATM    8  C   UNK     0      73.411  73.827  63.306  0.00  0.00    -0.030 A 
HETATM    9  C   UNK     0      70.250  75.879  62.653  0.00  0.00     0.045 C 
HETATM   10  C   UNK     0      69.728  75.767  64.080  0.00  0.00     0.025 C 
HETATM   11  C   UNK     0      73.247  72.906  65.629  0.00  0.00     0.024 C 
HETATM   12  C   UNK     0      73.977  72.836  64.294  0.00  0.00     0.042 C 
HETATM   13  C   UNK     0      72.440  75.615  61.419  0.00  0.00     0.098 A 
HETATM   14  C   UNK     0      74.195  74.188  62.197  0.00  0.00     0.023 A 
HETATM   15  C   UNK     0      73.710  75.083  61.246  0.00  0.00     0.000 A 
HETATM   16  C   UNK     0      74.495  75.474  60.087  0.00  0.00     0.035 A 
HETATM   17  C   UNK     0      74.006  76.333  59.180  0.00  0.00     0.086 A 
HETATM   18  C   UNK     0      72.645  76.910  59.333  0.00  0.00     0.302 A 
ENDROOT
BRANCH  17  19
HETATM   19  C   UNK     0      74.811  76.700  58.056  0.00  0.00     0.145 A 
HETATM   20  N   UNK     0      74.811  78.018  57.688  0.00  0.00    -0.338 N 
HETATM   21  C   UNK     0      75.637  78.148  56.601  0.00  0.00     0.062 A 
HETATM   22  H   UNK     0      74.308  78.774  58.134  0.00  0.00     0.167 HD
HETATM   23  C   UNK     0      76.105  76.859  56.365  0.00  0.00     0.086 A 
HETATM   24  C   UNK     0      76.004  79.250  55.828  0.00  0.00     0.032 A 
HETATM   25  N   UNK     0      75.581  75.973  57.278  0.00  0.00    -0.228 NA
HETATM   26  C   UNK     0      76.992  76.637  55.299  0.00  0.00     0.034 A 
HETATM   27  C   UNK     0      77.375  77.729  54.509  0.00  0.00     0.002 A 
HETATM   28  C   UNK     0      76.887  79.012  54.771  0.00  0.00     0.002 A 
ENDBRANCH  17  19
TORSDOF 1
ENDMDL
MODEL 5
REMARK VINA RESULT:      -8.7      6.156      8.604
REMARK  1 active torsions:
REMARK  status: ('A' for Active; 'I' for Inactive)
REMARK    1  A    between atoms: C_19  and  C_21 
ROOT
HETATM    1  O   UNK     0      74.241  75.089  59.635  0.00  0.00    -0.273 OA
HETATM    2  O   UNK     0      73.701  73.629  61.305  0.00  0.00    -0.259 OA
HETATM    3  N   UNK     0      75.368  78.099  55.982  0.00  0.00    -0.380 N 
HETATM    4  C   UNK     0      74.585  77.776  57.093  0.00  0.00     0.045 A 
HETATM    5  C   UNK     0      74.829  76.598  57.838  0.00  0.00     0.004 A 
HETATM    6  C   UNK     0      76.273  77.096  55.431  0.00  0.00     0.123 C 
HETATM    7  C   UNK     0      74.960  79.202  55.116  0.00  0.00     0.123 C 
HETATM    8  C   UNK     0      73.549  78.639  57.526  0.00  0.00    -0.030 A 
HETATM    9  C   UNK     0      75.932  75.650  57.432  0.00  0.00     0.045 C 
HETATM   10  C   UNK     0      76.968  76.339  56.553  0.00  0.00     0.025 C 
HETATM   11  C   UNK     0      74.442  80.368  55.948  0.00  0.00     0.024 C 
HETATM   12  C   UNK     0      73.249  79.918  56.781  0.00  0.00     0.042 C 
HETATM   13  C   UNK     0      74.004  76.292  58.933  0.00  0.00     0.098 A 
HETATM   14  C   UNK     0      72.746  78.304  58.630  0.00  0.00     0.023 A 
HETATM   15  C   UNK     0      72.970  77.125  59.337  0.00  0.00     0.000 A 
HETATM   16  C   UNK     0      72.156  76.750  60.481  0.00  0.00     0.035 A 
HETATM   17  C   UNK     0      72.385  75.607  61.145  0.00  0.00     0.086 A 
HETATM   18  C   UNK     0      73.477  74.689  60.728  0.00  0.00     0.302 A 
ENDROOT
BRANCH  17  19
HETATM   19  C   UNK     0      71.568  75.273  62.271  0.00  0.00     0.145 A 
HETATM   20  N   UNK     0      72.198  74.773  63.377  0.00  0.00    -0.338 N 
HETATM   21  C   UNK     0      71.240  74.524  64.327  0.00  0.00     0.062 A 
HETATM   22  H   UNK     0      73.191  74.621  63.495  0.00  0.00     0.167 HD
HETATM   23  C   UNK     0      70.045  74.899  63.720  0.00  0.00     0.086 A 
HETATM   24  C   UNK     0      71.315  74.017  65.624  0.00  0.00     0.032 A 
HETATM   25  N   UNK     0      70.268  75.361  62.444  0.00  0.00    -0.228 NA
HETATM   26  C   UNK     0      68.843  74.768  64.436  0.00  0.00     0.034 A 
HETATM   27  C   UNK     0      68.894  74.262  65.741  0.00  0.00     0.002 A 
HETATM   28  C   UNK     0      70.110  73.894  66.322  0.00  0.00     0.002 A 
ENDBRANCH  17  19
TORSDOF 1
ENDMDL
MODEL 6
REMARK VINA RESULT:      -8.6      6.287      8.895
REMARK  1 active torsions:
REMARK  status: ('A' for Active; 'I' for Inactive)
REMARK    1  A    between atoms: C_19  and  C_21 
ROOT
HETATM    1  O   UNK     0      72.212  78.339  59.578  0.00  0.00    -0.273 OA
HETATM    2  O   UNK     0      70.667  78.350  61.259  0.00  0.00    -0.259 OA
HETATM    3  N   UNK     0      75.550  78.442  56.039  0.00  0.00    -0.380 N 
HETATM    4  C   UNK     0      74.988  77.830  57.163  0.00  0.00     0.045 A 
HETATM    5  C   UNK     0      73.847  78.377  57.795  0.00  0.00     0.004 A 
HETATM    6  C   UNK     0      75.119  79.786  55.668  0.00  0.00     0.123 C 
HETATM    7  C   UNK     0      76.841  77.975  55.542  0.00  0.00     0.123 C 
HETATM    8  C   UNK     0      75.525  76.624  57.676  0.00  0.00    -0.030 A 
HETATM    9  C   UNK     0      73.223  79.652  57.279  0.00  0.00     0.045 C 
HETATM   10  C   UNK     0      73.613  79.921  55.832  0.00  0.00     0.025 C 
HETATM   11  C   UNK     0      76.916  76.455  55.600  0.00  0.00     0.024 C 
HETATM   12  C   UNK     0      76.734  75.984  57.037  0.00  0.00     0.042 C 
HETATM   13  C   UNK     0      73.326  77.750  58.940  0.00  0.00     0.098 A 
HETATM   14  C   UNK     0      74.975  76.021  58.820  0.00  0.00     0.023 A 
HETATM   15  C   UNK     0      73.873  76.585  59.458  0.00  0.00     0.000 A 
HETATM   16  C   UNK     0      73.282  75.986  60.644  0.00  0.00     0.035 A 
HETATM   17  C   UNK     0      72.224  76.548  61.247  0.00  0.00     0.086 A 
HETATM   18  C   UNK     0      71.625  77.803  60.721  0.00  0.00     0.302 A 
ENDROOT
BRANCH  17  19
HETATM   19  C   UNK     0      71.665  75.927  62.408  0.00  0.00     0.145 A 
HETATM   20  N   UNK     0      70.302  75.827  62.471  0.00  0.00    -0.338 N 
HETATM   21  C   UNK     0      69.983  75.207  63.653  0.00  0.00     0.062 A 
HETATM   22  H   UNK     0      69.637  76.138  61.776  0.00  0.00     0.167 HD
HETATM   23  C   UNK     0      71.212  74.959  64.257  0.00  0.00     0.086 A 
HETATM   24  C   UNK     0      68.762  74.854  64.226  0.00  0.00     0.032 A 
HETATM   25  N   UNK     0      72.245  75.413  63.469  0.00  0.00    -0.228 NA
HETATM   26  C   UNK     0      71.244  74.322  65.508  0.00  0.00     0.034 A 
HETATM   27  C   UNK     0      70.029  73.957  66.103  0.00  0.00     0.002 A 
HETATM   28  C   UNK     0      68.811  74.220  65.471  0.00  0.00     0.002 A 
ENDBRANCH  17  19
TORSDOF 1
ENDMDL
MODEL 7
REMARK VINA RESULT:      -8.2     21.865     26.000
REMARK  1 active torsions:
REMARK  status: ('A' for Active; 'I' for Inactive)
REMARK    1  A    between atoms: C_19  and  C_21 
ROOT
HETATM    1  O   UNK     0      52.585  52.759  68.800  0.00  0.00    -0.273 OA
HETATM    2  O   UNK     0      52.643  54.841  69.736  0.00  0.00    -0.259 OA
HETATM    3  N   UNK     0      52.329  48.350  66.759  0.00  0.00    -0.380 N 
HETATM    4  C   UNK     0      52.948  49.596  66.888  0.00  0.00     0.045 A 
HETATM    5  C   UNK     0      52.473  50.553  67.815  0.00  0.00     0.004 A 
HETATM    6  C   UNK     0      51.033  48.129  67.393  0.00  0.00     0.123 C 
HETATM    7  C   UNK     0      52.709  47.473  65.654  0.00  0.00     0.123 C 
HETATM    8  C   UNK     0      54.094  49.918  66.120  0.00  0.00    -0.030 A 
HETATM    9  C   UNK     0      51.265  50.255  68.671  0.00  0.00     0.045 C 
HETATM   10  C   UNK     0      51.009  48.757  68.778  0.00  0.00     0.025 C 
HETATM   11  C   UNK     0      54.216  47.510  65.441  0.00  0.00     0.024 C 
HETATM   12  C   UNK     0      54.658  48.933  65.124  0.00  0.00     0.042 C 
HETATM   13  C   UNK     0      53.104  51.805  67.897  0.00  0.00     0.098 A 
HETATM   14  C   UNK     0      54.705  51.178  66.233  0.00  0.00     0.023 A 
HETATM   15  C   UNK     0      54.209  52.129  67.122  0.00  0.00     0.000 A 
HETATM   16  C   UNK     0      54.817  53.443  67.260  0.00  0.00     0.035 A 
HETATM   17  C   UNK     0      54.320  54.346  68.118  0.00  0.00     0.086 A 
HETATM   18  C   UNK     0      53.131  54.031  68.953  0.00  0.00     0.302 A 
ENDROOT
BRANCH  17  19
HETATM   19  C   UNK     0      54.948  55.626  68.233  0.00  0.00     0.145 A 
HETATM   20  N   UNK     0      54.230  56.716  67.828  0.00  0.00    -0.338 N 
HETATM   21  C   UNK     0      55.011  57.827  68.021  0.00  0.00     0.062 A 
HETATM   22  H   UNK     0      53.287  56.722  67.461  0.00  0.00     0.167 HD
HETATM   23  C   UNK     0      56.197  57.329  68.550  0.00  0.00     0.086 A 
HETATM   24  C   UNK     0      54.787  59.184  67.786  0.00  0.00     0.032 A 
HETATM   25  N   UNK     0      56.140  55.959  68.674  0.00  0.00    -0.228 NA
HETATM   26  C   UNK     0      57.234  58.221  68.869  0.00  0.00     0.034 A 
HETATM   27  C   UNK     0      57.031  59.589  68.642  0.00  0.00     0.002 A 
HETATM   28  C   UNK     0      55.829  60.059  68.109  0.00  0.00     0.002 A 
ENDBRANCH  17  19
TORSDOF 1
ENDMDL
MODEL 8
REMARK VINA RESULT:      -8.2      6.764     11.018
REMARK  1 active torsions:
REMARK  status: ('A' for Active; 'I' for Inactive)
REMARK    1  A    between atoms: C_19  and  C_21 
ROOT
HETATM    1  O   UNK     0      73.902  74.747  59.787  0.00  0.00    -0.273 OA
HETATM    2  O   UNK     0      74.810  74.320  57.737  0.00  0.00    -0.259 OA
HETATM    3  N   UNK     0      72.078  75.596  64.218  0.00  0.00    -0.380 N 
HETATM    4  C   UNK     0      72.525  76.060  62.977  0.00  0.00     0.045 A 
HETATM    5  C   UNK     0      72.962  75.160  61.978  0.00  0.00     0.004 A 
HETATM    6  C   UNK     0      72.304  74.201  64.581  0.00  0.00     0.123 C 
HETATM    7  C   UNK     0      71.836  76.554  65.294  0.00  0.00     0.123 C 
HETATM    8  C   UNK     0      72.516  77.444  62.675  0.00  0.00    -0.030 A 
HETATM    9  C   UNK     0      72.977  73.673  62.241  0.00  0.00     0.045 C 
HETATM   10  C   UNK     0      72.046  73.296  63.386  0.00  0.00     0.025 C 
HETATM   11  C   UNK     0      71.160  77.805  64.751  0.00  0.00     0.024 C 
HETATM   12  C   UNK     0      72.047  78.454  63.695  0.00  0.00     0.042 C 
HETATM   13  C   UNK     0      73.431  75.664  60.753  0.00  0.00     0.098 A 
HETATM   14  C   UNK     0      72.985  77.913  61.437  0.00  0.00     0.023 A 
HETATM   15  C   UNK     0      73.448  77.023  60.471  0.00  0.00     0.000 A 
HETATM   16  C   UNK     0      73.943  77.477  59.181  0.00  0.00     0.035 A 
HETATM   17  C   UNK     0      74.389  76.603  58.267  0.00  0.00     0.086 A 
HETATM   18  C   UNK     0      74.393  75.144  58.546  0.00  0.00     0.302 A 
ENDROOT
BRANCH  17  19
HETATM   19  C   UNK     0      74.862  77.086  57.006  0.00  0.00     0.145 A 
HETATM   20  N   UNK     0      76.057  76.598  56.555  0.00  0.00    -0.338 N 
HETATM   21  C   UNK     0      76.318  77.186  55.343  0.00  0.00     0.062 A 
HETATM   22  H   UNK     0      76.647  75.916  57.013  0.00  0.00     0.167 HD
HETATM   23  C   UNK     0      75.230  78.025  55.124  0.00  0.00     0.086 A 
HETATM   24  C   UNK     0      77.381  77.059  54.449  0.00  0.00     0.032 A 
HETATM   25  N   UNK     0      74.336  77.951  56.167  0.00  0.00    -0.228 NA
HETATM   26  C   UNK     0      75.183  78.792  53.948  0.00  0.00     0.034 A 
HETATM   27  C   UNK     0      76.239  78.680  53.034  0.00  0.00     0.002 A 
HETATM   28  C   UNK     0      77.318  77.829  53.283  0.00  0.00     0.002 A 
ENDBRANCH  17  19
TORSDOF 1
ENDMDL
MODEL 9
REMARK VINA RESULT:      -8.2     24.338     26.277
REMARK  1 active torsions:
REMARK  status: ('A' for Active; 'I' for Inactive)
REMARK    1  A    between atoms: C_19  and  C_21 
ROOT
HETATM    1  O   UNK     0      63.479  47.349  62.794  0.00  0.00    -0.273 OA
HETATM    2  O   UNK     0      63.794  46.563  60.674  0.00  0.00    -0.259 OA
HETATM    3  N   UNK     0      62.948  49.029  67.330  0.00  0.00    -0.380 N 
HETATM    4  C   UNK     0      62.739  49.156  65.954  0.00  0.00     0.045 A 
HETATM    5  C   UNK     0      63.188  48.161  65.054  0.00  0.00     0.004 A 
HETATM    6  C   UNK     0      63.857  47.998  67.821  0.00  0.00     0.123 C 
HETATM    7  C   UNK     0      62.664  50.164  68.204  0.00  0.00     0.123 C 
HETATM    8  C   UNK     0      62.038  50.269  65.428  0.00  0.00    -0.030 A 
HETATM    9  C   UNK     0      63.926  46.946  65.563  0.00  0.00     0.045 C 
HETATM   10  C   UNK     0      63.658  46.706  67.043  0.00  0.00     0.025 C 
HETATM   11  C   UNK     0      61.381  50.860  67.772  0.00  0.00     0.024 C 
HETATM   12  C   UNK     0      61.521  51.357  66.338  0.00  0.00     0.042 C 
HETATM   13  C   UNK     0      62.984  48.337  63.675  0.00  0.00     0.098 A 
HETATM   14  C   UNK     0      61.846  50.409  64.043  0.00  0.00     0.023 A 
HETATM   15  C   UNK     0      62.323  49.442  63.160  0.00  0.00     0.000 A 
HETATM   16  C   UNK     0      62.142  49.560  61.722  0.00  0.00     0.035 A 
HETATM   17  C   UNK     0      62.614  48.620  60.889  0.00  0.00     0.086 A 
HETATM   18  C   UNK     0      63.337  47.431  61.411  0.00  0.00     0.302 A 
ENDROOT
BRANCH  17  19
HETATM   19  C   UNK     0      62.412  48.765  59.480  0.00  0.00     0.145 A 
HETATM   20  N   UNK     0      61.133  48.632  59.013  0.00  0.00    -0.338 N 
HETATM   21  C   UNK     0      61.166  48.807  57.652  0.00  0.00     0.062 A 
HETATM   22  H   UNK     0      60.302  48.451  59.559  0.00  0.00     0.167 HD
HETATM   23  C   UNK     0      62.506  49.042  57.365  0.00  0.00     0.086 A 
HETATM   24  C   UNK     0      60.166  48.779  56.679  0.00  0.00     0.032 A 
HETATM   25  N   UNK     0      63.266  49.013  58.512  0.00  0.00    -0.228 NA
HETATM   26  C   UNK     0      62.892  49.265  56.033  0.00  0.00     0.034 A 
HETATM   27  C   UNK     0      61.906  49.242  55.038  0.00  0.00     0.002 A 
HETATM   28  C   UNK     0      60.568  49.003  55.358  0.00  0.00     0.002 A 
ENDBRANCH  17  19
TORSDOF 1
ENDMDL
