MODEL 1
REMARK VINA RESULT:      -7.3      0.000      0.000
REMARK  3 active torsions:
REMARK  status: ('A' for Active; 'I' for Inactive)
REMARK       I    between atoms: N_7  and  C_12 
REMARK    1  A    between atoms: N_7  and  C_14 
REMARK    2  A    between atoms: C_10  and  C_12 
REMARK    3  A    between atoms: C_16  and  C_18 
ROOT
HETATM    1  O   UNK     0      56.942  56.438  68.632  0.00  0.00    -0.267 OA
HETATM    2  N   UNK     0      55.039  57.679  69.234  0.00  0.00    -0.300 N 
HETATM    3  C   UNK     0      55.885  56.551  69.290  0.00  0.00     0.260 C 
HETATM    4  H   UNK     0      54.199  57.692  69.804  0.00  0.00     0.171 HD
ENDROOT
BRANCH   2   5
HETATM    5  C   UNK     0      55.205  58.836  68.468  0.00  0.00     0.197 A 
HETATM    6  S   UNK     0      54.189  58.978  67.110  0.00  0.00    -0.024 SA
HETATM    7  C   UNK     0      54.977  60.474  66.826  0.00  0.00     0.206 A 
HETATM    8  N   UNK     0      55.907  60.784  67.705  0.00  0.00    -0.135 NA
HETATM    9  N   UNK     0      56.038  59.809  68.677  0.00  0.00    -0.123 NA
BRANCH   7  10
HETATM   10  C   UNK     0      54.594  61.301  65.664  0.00  0.00     0.443 C 
HETATM   11  F   UNK     0      55.658  61.827  64.973  0.00  0.00    -0.164 F 
HETATM   12  F   UNK     0      53.866  60.632  64.714  0.00  0.00    -0.164 F 
HETATM   13  F   UNK     0      53.823  62.383  66.003  0.00  0.00    -0.164 F 
ENDBRANCH   7  10
ENDBRANCH   2   5
BRANCH   3  14
HETATM   14  C   UNK     0      55.491  55.505  70.188  0.00  0.00     0.063 A 
HETATM   15  C   UNK     0      54.954  54.294  69.817  0.00  0.00     0.064 A 
HETATM   16  O   UNK     0      54.694  53.532  70.912  0.00  0.00    -0.326 OA
HETATM   17  C   UNK     0      54.620  53.689  68.518  0.00  0.00     0.077 C 
HETATM   18  C   UNK     0      55.070  54.265  71.993  0.00  0.00     0.143 A 
HETATM   19  C   UNK     0      55.567  55.485  71.600  0.00  0.00     0.044 A 
ENDBRANCH   3  14
TORSDOF 3
ENDMDL
MODEL 2
REMARK VINA RESULT:      -7.0     19.196     20.081
REMARK  3 active torsions:
REMARK  status: ('A' for Active; 'I' for Inactive)
REMARK       I    between atoms: N_7  and  C_12 
REMARK    1  A    between atoms: N_7  and  C_14 
REMARK    2  A    between atoms: C_10  and  C_12 
REMARK    3  A    between atoms: C_16  and  C_18 
ROOT
HETATM    1  O   UNK     0      63.314  72.930  63.182  0.00  0.00    -0.267 OA
HETATM    2  N   UNK     0      63.143  75.234  62.747  0.00  0.00    -0.300 N 
HETATM    3  C   UNK     0      63.857  74.040  62.980  0.00  0.00     0.260 C 
HETATM    4  H   UNK     0      63.660  76.093  62.588  0.00  0.00     0.171 HD
ENDROOT
BRANCH   2   5
HETATM    5  C   UNK     0      61.757  75.408  62.701  0.00  0.00     0.197 A 
HETATM    6  S   UNK     0      61.119  76.563  63.777  0.00  0.00    -0.024 SA
HETATM    7  C   UNK     0      59.589  76.160  63.114  0.00  0.00     0.206 A 
HETATM    8  N   UNK     0      59.621  75.237  62.175  0.00  0.00    -0.135 NA
HETATM    9  N   UNK     0      60.909  74.795  61.934  0.00  0.00    -0.123 NA
BRANCH   7  10
HETATM   10  C   UNK     0      58.371  76.833  63.607  0.00  0.00     0.443 C 
HETATM   11  F   UNK     0      57.594  76.058  64.431  0.00  0.00    -0.164 F 
HETATM   12  F   UNK     0      58.613  77.971  64.334  0.00  0.00    -0.164 F 
HETATM   13  F   UNK     0      57.530  77.231  62.600  0.00  0.00    -0.164 F 
ENDBRANCH   7  10
ENDBRANCH   2   5
BRANCH   3  14
HETATM   14  C   UNK     0      65.287  74.136  62.945  0.00  0.00     0.063 A 
HETATM   15  C   UNK     0      66.053  74.241  61.808  0.00  0.00     0.064 A 
HETATM   16  O   UNK     0      67.372  74.314  62.127  0.00  0.00    -0.326 OA
HETATM   17  C   UNK     0      65.735  74.288  60.372  0.00  0.00     0.077 C 
HETATM   18  C   UNK     0      67.448  74.255  63.483  0.00  0.00     0.143 A 
HETATM   19  C   UNK     0      66.192  74.145  64.032  0.00  0.00     0.044 A 
ENDBRANCH   3  14
TORSDOF 3
ENDMDL
MODEL 3
REMARK VINA RESULT:      -6.9     18.678     19.786
REMARK  3 active torsions:
REMARK  status: ('A' for Active; 'I' for Inactive)
REMARK       I    between atoms: N_7  and  C_12 
REMARK    1  A    between atoms: N_7  and  C_14 
REMARK    2  A    between atoms: C_10  and  C_12 
REMARK    3  A    between atoms: C_16  and  C_18 
ROOT
HETATM    1  O   UNK     0      61.832  76.013  64.523  0.00  0.00    -0.267 OA
HETATM    2  N   UNK     0      61.480  74.136  63.153  0.00  0.00    -0.300 N 
HETATM    3  C   UNK     0      61.055  75.191  63.988  0.00  0.00     0.260 C 
HETATM    4  H   UNK     0      60.783  73.513  62.755  0.00  0.00     0.171 HD
ENDROOT
BRANCH   2   5
HETATM    5  C   UNK     0      62.786  73.816  62.775  0.00  0.00     0.197 A 
HETATM    6  S   UNK     0      63.460  74.779  61.543  0.00  0.00    -0.024 SA
HETATM    7  C   UNK     0      64.863  73.809  61.716  0.00  0.00     0.206 A 
HETATM    8  N   UNK     0      64.773  72.866  62.630  0.00  0.00    -0.135 NA
HETATM    9  N   UNK     0      63.539  72.874  63.255  0.00  0.00    -0.123 NA
BRANCH   7  10
HETATM   10  C   UNK     0      66.046  74.065  60.870  0.00  0.00     0.443 C 
HETATM   11  F   UNK     0      65.748  74.379  59.567  0.00  0.00    -0.164 F 
HETATM   12  F   UNK     0      66.831  75.104  61.301  0.00  0.00    -0.164 F 
HETATM   13  F   UNK     0      66.894  72.991  60.790  0.00  0.00    -0.164 F 
ENDBRANCH   7  10
ENDBRANCH   2   5
BRANCH   3  14
HETATM   14  C   UNK     0      59.641  75.312  64.191  0.00  0.00     0.063 A 
HETATM   15  C   UNK     0      58.869  76.386  63.813  0.00  0.00     0.064 A 
HETATM   16  O   UNK     0      57.569  76.182  64.152  0.00  0.00    -0.326 OA
HETATM   17  C   UNK     0      59.167  77.660  63.141  0.00  0.00     0.077 C 
HETATM   18  C   UNK     0      57.511  74.964  64.753  0.00  0.00     0.143 A 
HETATM   19  C   UNK     0      58.759  74.390  64.801  0.00  0.00     0.044 A 
ENDBRANCH   3  14
TORSDOF 3
ENDMDL
MODEL 4
REMARK VINA RESULT:      -6.8      5.017      7.369
REMARK  3 active torsions:
REMARK  status: ('A' for Active; 'I' for Inactive)
REMARK       I    between atoms: N_7  and  C_12 
REMARK    1  A    between atoms: N_7  and  C_14 
REMARK    2  A    between atoms: C_10  and  C_12 
REMARK    3  A    between atoms: C_16  and  C_18 
ROOT
HETATM    1  O   UNK     0      52.980  57.970  68.344  0.00  0.00    -0.267 OA
HETATM    2  N   UNK     0      55.207  57.217  68.298  0.00  0.00    -0.300 N 
HETATM    3  C   UNK     0      54.166  58.112  67.971  0.00  0.00     0.260 C 
HETATM    4  H   UNK     0      56.144  57.408  67.957  0.00  0.00     0.171 HD
ENDROOT
BRANCH   2   5
HETATM    5  C   UNK     0      55.125  56.051  69.064  0.00  0.00     0.197 A 
HETATM    6  S   UNK     0      55.522  56.216  70.711  0.00  0.00    -0.024 SA
HETATM    7  C   UNK     0      55.187  54.538  70.836  0.00  0.00     0.206 A 
HETATM    8  N   UNK     0      54.816  53.964  69.711  0.00  0.00    -0.135 NA
HETATM    9  N   UNK     0      54.781  54.866  68.662  0.00  0.00    -0.123 NA
BRANCH   7  10
HETATM   10  C   UNK     0      55.328  53.854  72.136  0.00  0.00     0.443 C 
HETATM   11  F   UNK     0      56.611  53.467  72.433  0.00  0.00    -0.164 F 
HETATM   12  F   UNK     0      54.940  54.608  73.214  0.00  0.00    -0.164 F 
HETATM   13  F   UNK     0      54.584  52.705  72.224  0.00  0.00    -0.164 F 
ENDBRANCH   7  10
ENDBRANCH   2   5
BRANCH   3  14
HETATM   14  C   UNK     0      54.533  59.256  67.189  0.00  0.00     0.063 A 
HETATM   15  C   UNK     0      55.514  60.164  67.512  0.00  0.00     0.064 A 
HETATM   16  O   UNK     0      55.607  61.127  66.557  0.00  0.00    -0.326 OA
HETATM   17  C   UNK     0      56.445  60.289  68.644  0.00  0.00     0.077 C 
HETATM   18  C   UNK     0      54.674  60.829  65.614  0.00  0.00     0.143 A 
HETATM   19  C   UNK     0      53.988  59.688  65.957  0.00  0.00     0.044 A 
ENDBRANCH   3  14
TORSDOF 3
ENDMDL
MODEL 5
REMARK VINA RESULT:      -6.7      5.544      7.652
REMARK  3 active torsions:
REMARK  status: ('A' for Active; 'I' for Inactive)
REMARK       I    between atoms: N_7  and  C_12 
REMARK    1  A    between atoms: N_7  and  C_14 
REMARK    2  A    between atoms: C_10  and  C_12 
REMARK    3  A    between atoms: C_16  and  C_18 
ROOT
HETATM    1  O   UNK     0      56.892  56.395  68.454  0.00  0.00    -0.267 OA
HETATM    2  N   UNK     0      55.136  56.481  70.014  0.00  0.00    -0.300 N 
HETATM    3  C   UNK     0      55.853  56.940  68.888  0.00  0.00     0.260 C 
HETATM    4  H   UNK     0      54.299  56.980  70.300  0.00  0.00     0.171 HD
ENDROOT
BRANCH   2   5
HETATM    5  C   UNK     0      55.429  55.384  70.828  0.00  0.00     0.197 A 
HETATM    6  S   UNK     0      55.312  53.857  70.084  0.00  0.00    -0.024 SA
HETATM    7  C   UNK     0      55.778  53.213  71.604  0.00  0.00     0.206 A 
HETATM    8  N   UNK     0      55.989  54.112  72.542  0.00  0.00    -0.135 NA
HETATM    9  N   UNK     0      55.780  55.398  72.077  0.00  0.00    -0.123 NA
BRANCH   7  10
HETATM   10  C   UNK     0      55.912  51.754  71.777  0.00  0.00     0.443 C 
HETATM   11  F   UNK     0      56.747  51.382  72.802  0.00  0.00    -0.164 F 
HETATM   12  F   UNK     0      54.732  51.109  72.046  0.00  0.00    -0.164 F 
HETATM   13  F   UNK     0      56.413  51.122  70.668  0.00  0.00    -0.164 F 
ENDBRANCH   7  10
ENDBRANCH   2   5
BRANCH   3  14
HETATM   14  C   UNK     0      55.313  58.082  68.212  0.00  0.00     0.063 A 
HETATM   15  C   UNK     0      55.891  59.330  68.164  0.00  0.00     0.064 A 
HETATM   16  O   UNK     0      55.122  60.185  67.441  0.00  0.00    -0.326 OA
HETATM   17  C   UNK     0      57.130  59.894  68.723  0.00  0.00     0.077 C 
HETATM   18  C   UNK     0      54.042  59.475  67.021  0.00  0.00     0.143 A 
HETATM   19  C   UNK     0      54.113  58.177  67.469  0.00  0.00     0.044 A 
ENDBRANCH   3  14
TORSDOF 3
ENDMDL
MODEL 6
REMARK VINA RESULT:      -6.7     20.654     21.315
REMARK  3 active torsions:
REMARK  status: ('A' for Active; 'I' for Inactive)
REMARK       I    between atoms: N_7  and  C_12 
REMARK    1  A    between atoms: N_7  and  C_14 
REMARK    2  A    between atoms: C_10  and  C_12 
REMARK    3  A    between atoms: C_16  and  C_18 
ROOT
HETATM    1  O   UNK     0      65.947  75.196  60.693  0.00  0.00    -0.267 OA
HETATM    2  N   UNK     0      65.720  73.329  62.104  0.00  0.00    -0.300 N 
HETATM    3  C   UNK     0      65.245  74.483  61.445  0.00  0.00     0.260 C 
HETATM    4  H   UNK     0      65.083  72.804  62.696  0.00  0.00     0.171 HD
ENDROOT
BRANCH   2   5
HETATM    5  C   UNK     0      67.004  72.780  62.051  0.00  0.00     0.197 A 
HETATM    6  S   UNK     0      68.217  73.653  62.864  0.00  0.00    -0.024 SA
HETATM    7  C   UNK     0      69.288  72.419  62.343  0.00  0.00     0.206 A 
HETATM    8  N   UNK     0      68.726  71.467  61.628  0.00  0.00    -0.135 NA
HETATM    9  N   UNK     0      67.371  71.686  61.458  0.00  0.00    -0.123 NA
BRANCH   7  10
HETATM   10  C   UNK     0      70.718  72.483  62.702  0.00  0.00     0.443 C 
HETATM   11  F   UNK     0      71.136  73.718  63.134  0.00  0.00    -0.164 F 
HETATM   12  F   UNK     0      71.084  71.627  63.709  0.00  0.00    -0.164 F 
HETATM   13  F   UNK     0      71.551  72.175  61.657  0.00  0.00    -0.164 F 
ENDBRANCH   7  10
ENDBRANCH   2   5
BRANCH   3  14
HETATM   14  C   UNK     0      63.865  74.812  61.651  0.00  0.00     0.063 A 
HETATM   15  C   UNK     0      62.855  74.628  60.736  0.00  0.00     0.064 A 
HETATM   16  O   UNK     0      61.666  75.043  61.247  0.00  0.00    -0.326 OA
HETATM   17  C   UNK     0      62.814  74.091  59.366  0.00  0.00     0.077 C 
HETATM   18  C   UNK     0      61.921  75.496  62.503  0.00  0.00     0.143 A 
HETATM   19  C   UNK     0      63.258  75.375  62.798  0.00  0.00     0.044 A 
ENDBRANCH   3  14
TORSDOF 3
ENDMDL
MODEL 7
REMARK VINA RESULT:      -6.6     18.950     20.345
REMARK  3 active torsions:
REMARK  status: ('A' for Active; 'I' for Inactive)
REMARK       I    between atoms: N_7  and  C_12 
REMARK    1  A    between atoms: N_7  and  C_14 
REMARK    2  A    between atoms: C_10  and  C_12 
REMARK    3  A    between atoms: C_16  and  C_18 
ROOT
HETATM    1  O   UNK     0      61.935  76.654  64.470  0.00  0.00    -0.267 OA
HETATM    2  N   UNK     0      61.936  74.993  62.807  0.00  0.00    -0.300 N 
HETATM    3  C   UNK     0      61.331  75.779  63.811  0.00  0.00     0.260 C 
HETATM    4  H   UNK     0      61.373  74.305  62.316  0.00  0.00     0.171 HD
ENDROOT
BRANCH   2   5
HETATM    5  C   UNK     0      63.263  75.032  62.372  0.00  0.00     0.197 A 
HETATM    6  S   UNK     0      64.372  74.126  63.293  0.00  0.00    -0.024 SA
HETATM    7  C   UNK     0      65.560  74.680  62.187  0.00  0.00     0.206 A 
HETATM    8  N   UNK     0      65.104  75.469  61.237  0.00  0.00    -0.135 NA
HETATM    9  N   UNK     0      63.741  75.675  61.351  0.00  0.00    -0.123 NA
BRANCH   7  10
HETATM   10  C   UNK     0      66.968  74.267  62.349  0.00  0.00     0.443 C 
HETATM   11  F   UNK     0      67.272  73.783  63.597  0.00  0.00    -0.164 F 
HETATM   12  F   UNK     0      67.365  73.274  61.490  0.00  0.00    -0.164 F 
HETATM   13  F   UNK     0      67.857  75.290  62.141  0.00  0.00    -0.164 F 
ENDBRANCH   7  10
ENDBRANCH   2   5
BRANCH   3  14
HETATM   14  C   UNK     0      59.934  75.553  64.041  0.00  0.00     0.063 A 
HETATM   15  C   UNK     0      58.915  76.397  63.662  0.00  0.00     0.064 A 
HETATM   16  O   UNK     0      57.712  75.886  64.032  0.00  0.00    -0.326 OA
HETATM   17  C   UNK     0      58.879  77.691  62.963  0.00  0.00     0.077 C 
HETATM   18  C   UNK     0      57.965  74.704  64.653  0.00  0.00     0.143 A 
HETATM   19  C   UNK     0      59.317  74.455  64.684  0.00  0.00     0.044 A 
ENDBRANCH   3  14
TORSDOF 3
ENDMDL
MODEL 8
REMARK VINA RESULT:      -6.6      5.456      7.529
REMARK  3 active torsions:
REMARK  status: ('A' for Active; 'I' for Inactive)
REMARK       I    between atoms: N_7  and  C_12 
REMARK    1  A    between atoms: N_7  and  C_14 
REMARK    2  A    between atoms: C_10  and  C_12 
REMARK    3  A    between atoms: C_16  and  C_18 
ROOT
HETATM    1  O   UNK     0      55.800  56.194  68.421  0.00  0.00    -0.267 OA
HETATM    2  N   UNK     0      54.854  57.314  70.258  0.00  0.00    -0.300 N 
HETATM    3  C   UNK     0      55.299  57.225  68.922  0.00  0.00     0.260 C 
HETATM    4  H   UNK     0      54.455  58.188  70.586  0.00  0.00     0.171 HD
ENDROOT
BRANCH   2   5
HETATM    5  C   UNK     0      54.885  56.319  71.239  0.00  0.00     0.197 A 
HETATM    6  S   UNK     0      53.393  55.960  71.977  0.00  0.00    -0.024 SA
HETATM    7  C   UNK     0      54.264  54.805  72.899  0.00  0.00     0.206 A 
HETATM    8  N   UNK     0      55.552  54.743  72.632  0.00  0.00    -0.135 NA
HETATM    9  N   UNK     0      55.915  55.643  71.647  0.00  0.00    -0.123 NA
BRANCH   7  10
HETATM   10  C   UNK     0      53.561  53.980  73.901  0.00  0.00     0.443 C 
HETATM   11  F   UNK     0      52.789  54.698  74.781  0.00  0.00    -0.164 F 
HETATM   12  F   UNK     0      52.700  53.057  73.365  0.00  0.00    -0.164 F 
HETATM   13  F   UNK     0      54.411  53.251  74.692  0.00  0.00    -0.164 F 
ENDBRANCH   7  10
ENDBRANCH   2   5
BRANCH   3  14
HETATM   14  C   UNK     0      55.123  58.396  68.113  0.00  0.00     0.063 A 
HETATM   15  C   UNK     0      55.984  59.467  68.061  0.00  0.00     0.064 A 
HETATM   16  O   UNK     0      55.523  60.408  67.195  0.00  0.00    -0.326 OA
HETATM   17  C   UNK     0      57.255  59.779  68.733  0.00  0.00     0.077 C 
HETATM   18  C   UNK     0      54.355  59.930  66.689  0.00  0.00     0.143 A 
HETATM   19  C   UNK     0      54.066  58.697  67.223  0.00  0.00     0.044 A 
ENDBRANCH   3  14
TORSDOF 3
ENDMDL
MODEL 9
REMARK VINA RESULT:      -6.5     21.562     22.445
REMARK  3 active torsions:
REMARK  status: ('A' for Active; 'I' for Inactive)
REMARK       I    between atoms: N_7  and  C_12 
REMARK    1  A    between atoms: N_7  and  C_14 
REMARK    2  A    between atoms: C_10  and  C_12 
REMARK    3  A    between atoms: C_16  and  C_18 
ROOT
HETATM    1  O   UNK     0      68.846  69.327  82.924  0.00  0.00    -0.267 OA
HETATM    2  N   UNK     0      67.882  71.086  81.698  0.00  0.00    -0.300 N 
HETATM    3  C   UNK     0      68.969  70.326  82.180  0.00  0.00     0.260 C 
HETATM    4  H   UNK     0      68.068  71.882  81.095  0.00  0.00     0.171 HD
ENDROOT
BRANCH   2   5
HETATM    5  C   UNK     0      66.521  70.886  81.943  0.00  0.00     0.197 A 
HETATM    6  S   UNK     0      65.579  70.462  80.590  0.00  0.00    -0.024 SA
HETATM    7  C   UNK     0      64.252  70.424  81.676  0.00  0.00     0.206 A 
HETATM    8  N   UNK     0      64.553  70.711  82.925  0.00  0.00    -0.135 NA
HETATM    9  N   UNK     0      65.900  70.985  83.078  0.00  0.00    -0.123 NA
BRANCH   7  10
HETATM   10  C   UNK     0      62.903  70.089  81.181  0.00  0.00     0.443 C 
HETATM   11  F   UNK     0      62.329  71.066  80.404  0.00  0.00    -0.164 F 
HETATM   12  F   UNK     0      62.854  68.961  80.402  0.00  0.00    -0.164 F 
HETATM   13  F   UNK     0      61.999  69.862  82.186  0.00  0.00    -0.164 F 
ENDBRANCH   7  10
ENDBRANCH   2   5
BRANCH   3  14
HETATM   14  C   UNK     0      70.273  70.735  81.748  0.00  0.00     0.063 A 
HETATM   15  C   UNK     0      71.118  69.999  80.950  0.00  0.00     0.064 A 
HETATM   16  O   UNK     0      72.275  70.676  80.729  0.00  0.00    -0.326 OA
HETATM   17  C   UNK     0      71.015  68.676  80.315  0.00  0.00     0.077 C 
HETATM   18  C   UNK     0      72.168  71.857  81.393  0.00  0.00     0.143 A 
HETATM   19  C   UNK     0      70.955  71.941  82.035  0.00  0.00     0.044 A 
ENDBRANCH   3  14
TORSDOF 3
ENDMDL
