MODEL 1
REMARK VINA RESULT:      -8.9      0.000      0.000
REMARK  2 active torsions:
REMARK  status: ('A' for Active; 'I' for Inactive)
REMARK    1  A    between atoms: O_1  and  C_9 
REMARK    2  A    between atoms: C_7  and  C_11 
ROOT
HETATM    1  O   UNK     0      57.761  58.572  70.146  0.00  0.00    -0.265 OA
HETATM    2  N   UNK     0      54.533  56.771  68.640  0.00  0.00    -0.324 N 
HETATM    3  N   UNK     0      56.411  56.720  70.107  0.00  0.00    -0.191 NA
HETATM    4  C   UNK     0      53.446  55.896  68.255  0.00  0.00     0.196 A 
HETATM    5  C   UNK     0      55.349  56.190  69.585  0.00  0.00     0.148 A 
HETATM    6  C   UNK     0      54.842  54.828  69.924  0.00  0.00     0.051 A 
HETATM    7  C   UNK     0      54.805  58.036  68.162  0.00  0.00     0.052 A 
HETATM    8  C   UNK     0      53.755  54.710  69.137  0.00  0.00     0.076 A 
HETATM    9  C   UNK     0      55.938  58.697  68.676  0.00  0.00     0.061 A 
HETATM   10  C   UNK     0      54.026  58.691  67.205  0.00  0.00     0.031 A 
HETATM   11  C   UNK     0      56.774  57.994  69.700  0.00  0.00     0.281 A 
HETATM   12  C   UNK     0      56.280  59.982  68.242  0.00  0.00     0.019 A 
HETATM   13  C   UNK     0      54.365  59.974  66.769  0.00  0.00     0.002 A 
HETATM   14  C   UNK     0      55.488  60.617  67.287  0.00  0.00     0.001 A 
ENDROOT
BRANCH   6  15
HETATM   15  C   UNK     0      55.398  53.891  70.895  0.00  0.00    -0.020 A 
HETATM   16  C   UNK     0      55.867  52.635  70.483  0.00  0.00     0.012 A 
HETATM   17  C   UNK     0      56.399  51.739  71.411  0.00  0.00     0.001 A 
HETATM   18  C   UNK     0      56.465  52.089  72.760  0.00  0.00     0.000 A 
HETATM   19  C   UNK     0      56.001  53.336  73.180  0.00  0.00     0.001 A 
HETATM   20  C   UNK     0      55.470  54.232  72.253  0.00  0.00     0.012 A 
ENDBRANCH   6  15
BRANCH   8  21
HETATM   21  O   UNK     0      52.917  53.626  69.105  0.00  0.00    -0.362 OA
HETATM   22  H   UNK     0      52.443  53.599  69.954  0.00  0.00     0.217 HD
ENDBRANCH   8  21
TORSDOF 2
ENDMDL
MODEL 2
REMARK VINA RESULT:      -8.7      2.006      6.986
REMARK  2 active torsions:
REMARK  status: ('A' for Active; 'I' for Inactive)
REMARK    1  A    between atoms: O_1  and  C_9 
REMARK    2  A    between atoms: C_7  and  C_11 
ROOT
HETATM    1  O   UNK     0      51.353  56.967  69.905  0.00  0.00    -0.265 OA
HETATM    2  N   UNK     0      55.326  57.329  70.037  0.00  0.00    -0.324 N 
HETATM    3  N   UNK     0      53.237  57.999  69.105  0.00  0.00    -0.191 NA
HETATM    4  C   UNK     0      56.729  57.647  69.870  0.00  0.00     0.196 A 
HETATM    5  C   UNK     0      54.528  58.074  69.198  0.00  0.00     0.148 A 
HETATM    6  C   UNK     0      55.372  58.992  68.379  0.00  0.00     0.051 A 
HETATM    7  C   UNK     0      54.769  56.400  70.891  0.00  0.00     0.052 A 
HETATM    8  C   UNK     0      56.620  58.707  68.801  0.00  0.00     0.076 A 
HETATM    9  C   UNK     0      53.369  56.251  70.868  0.00  0.00     0.061 A 
HETATM   10  C   UNK     0      55.511  55.607  71.770  0.00  0.00     0.031 A 
HETATM   11  C   UNK     0      52.574  57.099  69.924  0.00  0.00     0.281 A 
HETATM   12  C   UNK     0      52.729  55.330  71.704  0.00  0.00     0.019 A 
HETATM   13  C   UNK     0      54.875  54.687  72.607  0.00  0.00     0.002 A 
HETATM   14  C   UNK     0      53.489  54.549  72.574  0.00  0.00     0.001 A 
ENDROOT
BRANCH   6  15
HETATM   15  C   UNK     0      54.922  59.966  67.390  0.00  0.00    -0.020 A 
HETATM   16  C   UNK     0      54.352  59.541  66.181  0.00  0.00     0.012 A 
HETATM   17  C   UNK     0      53.921  60.471  65.235  0.00  0.00     0.001 A 
HETATM   18  C   UNK     0      54.056  61.836  65.488  0.00  0.00     0.000 A 
HETATM   19  C   UNK     0      54.622  62.271  66.688  0.00  0.00     0.001 A 
HETATM   20  C   UNK     0      55.053  61.341  67.633  0.00  0.00     0.012 A 
ENDBRANCH   6  15
BRANCH   8  21
HETATM   21  O   UNK     0      57.763  59.320  68.359  0.00  0.00    -0.362 OA
HETATM   22  H   UNK     0      58.328  59.478  69.135  0.00  0.00     0.217 HD
ENDBRANCH   8  21
TORSDOF 2
ENDMDL
MODEL 3
REMARK VINA RESULT:      -8.5     20.028     21.647
REMARK  2 active torsions:
REMARK  status: ('A' for Active; 'I' for Inactive)
REMARK    1  A    between atoms: O_1  and  C_9 
REMARK    2  A    between atoms: C_7  and  C_11 
ROOT
HETATM    1  O   UNK     0      64.286  74.787  59.789  0.00  0.00    -0.265 OA
HETATM    2  N   UNK     0      63.724  73.788  63.612  0.00  0.00    -0.324 N 
HETATM    3  N   UNK     0      62.942  74.880  61.642  0.00  0.00    -0.191 NA
HETATM    4  C   UNK     0      63.280  73.582  64.975  0.00  0.00     0.196 A 
HETATM    5  C   UNK     0      62.815  74.520  62.882  0.00  0.00     0.148 A 
HETATM    6  C   UNK     0      61.640  74.867  63.735  0.00  0.00     0.051 A 
HETATM    7  C   UNK     0      64.900  73.357  63.035  0.00  0.00     0.052 A 
HETATM    8  C   UNK     0      61.957  74.308  64.920  0.00  0.00     0.076 A 
HETATM    9  C   UNK     0      65.126  73.693  61.686  0.00  0.00     0.061 A 
HETATM   10  C   UNK     0      65.870  72.611  63.709  0.00  0.00     0.031 A 
HETATM   11  C   UNK     0      64.087  74.495  60.964  0.00  0.00     0.281 A 
HETATM   12  C   UNK     0      66.294  73.292  61.030  0.00  0.00     0.019 A 
HETATM   13  C   UNK     0      67.038  72.209  63.057  0.00  0.00     0.002 A 
HETATM   14  C   UNK     0      67.249  72.548  61.722  0.00  0.00     0.001 A 
ENDROOT
BRANCH   6  15
HETATM   15  C   UNK     0      60.446  75.608  63.343  0.00  0.00    -0.020 A 
HETATM   16  C   UNK     0      59.313  74.932  62.867  0.00  0.00     0.012 A 
HETATM   17  C   UNK     0      58.171  75.640  62.493  0.00  0.00     0.001 A 
HETATM   18  C   UNK     0      58.151  77.031  62.589  0.00  0.00     0.000 A 
HETATM   19  C   UNK     0      59.272  77.715  63.060  0.00  0.00     0.001 A 
HETATM   20  C   UNK     0      60.414  77.007  63.435  0.00  0.00     0.012 A 
ENDBRANCH   6  15
BRANCH   8  21
HETATM   21  O   UNK     0      61.168  74.328  66.039  0.00  0.00    -0.362 OA
HETATM   22  H   UNK     0      60.671  73.492  66.061  0.00  0.00     0.217 HD
ENDBRANCH   8  21
TORSDOF 2
ENDMDL
MODEL 4
REMARK VINA RESULT:      -8.1      3.226      5.238
REMARK  2 active torsions:
REMARK  status: ('A' for Active; 'I' for Inactive)
REMARK    1  A    between atoms: O_1  and  C_9 
REMARK    2  A    between atoms: C_7  and  C_11 
ROOT
HETATM    1  O   UNK     0      53.694  59.241  66.946  0.00  0.00    -0.265 OA
HETATM    2  N   UNK     0      54.061  57.255  70.389  0.00  0.00    -0.324 N 
HETATM    3  N   UNK     0      52.707  57.930  68.546  0.00  0.00    -0.191 NA
HETATM    4  C   UNK     0      53.913  56.481  71.604  0.00  0.00     0.196 A 
HETATM    5  C   UNK     0      52.890  57.300  69.665  0.00  0.00     0.148 A 
HETATM    6  C   UNK     0      51.830  56.519  70.366  0.00  0.00     0.051 A 
HETATM    7  C   UNK     0      55.187  57.913  69.941  0.00  0.00     0.052 A 
HETATM    8  C   UNK     0      52.466  56.073  71.467  0.00  0.00     0.076 A 
HETATM    9  C   UNK     0      55.088  58.622  68.727  0.00  0.00     0.061 A 
HETATM   10  C   UNK     0      56.409  57.914  70.618  0.00  0.00     0.031 A 
HETATM   11  C   UNK     0      53.778  58.622  68.003  0.00  0.00     0.281 A 
HETATM   12  C   UNK     0      56.187  59.314  68.207  0.00  0.00     0.019 A 
HETATM   13  C   UNK     0      57.508  58.605  70.101  0.00  0.00     0.002 A 
HETATM   14  C   UNK     0      57.396  59.302  68.899  0.00  0.00     0.001 A 
ENDROOT
BRANCH   6  15
HETATM   15  C   UNK     0      50.457  56.292  69.926  0.00  0.00    -0.020 A 
HETATM   16  C   UNK     0      49.400  57.027  70.482  0.00  0.00     0.012 A 
HETATM   17  C   UNK     0      48.088  56.811  70.062  0.00  0.00     0.001 A 
HETATM   18  C   UNK     0      47.819  55.856  69.081  0.00  0.00     0.000 A 
HETATM   19  C   UNK     0      48.862  55.118  68.521  0.00  0.00     0.001 A 
HETATM   20  C   UNK     0      50.174  55.334  68.941  0.00  0.00     0.012 A 
ENDBRANCH   6  15
BRANCH   8  21
HETATM   21  O   UNK     0      51.912  55.272  72.431  0.00  0.00    -0.362 OA
HETATM   22  H   UNK     0      51.652  55.846  73.172  0.00  0.00     0.217 HD
ENDBRANCH   8  21
TORSDOF 2
ENDMDL
MODEL 5
REMARK VINA RESULT:      -8.0     24.514     27.955
REMARK  2 active torsions:
REMARK  status: ('A' for Active; 'I' for Inactive)
REMARK    1  A    between atoms: O_1  and  C_9 
REMARK    2  A    between atoms: C_7  and  C_11 
ROOT
HETATM    1  O   UNK     0      75.114  72.855  63.591  0.00  0.00    -0.265 OA
HETATM    2  N   UNK     0      72.170  75.246  62.345  0.00  0.00    -0.324 N 
HETATM    3  N   UNK     0      74.351  74.339  62.019  0.00  0.00    -0.191 NA
HETATM    4  C   UNK     0      71.287  76.183  61.685  0.00  0.00     0.196 A 
HETATM    5  C   UNK     0      73.357  75.093  61.665  0.00  0.00     0.148 A 
HETATM    6  C   UNK     0      73.353  75.947  60.440  0.00  0.00     0.051 A 
HETATM    7  C   UNK     0      71.943  74.559  63.519  0.00  0.00     0.052 A 
HETATM    8  C   UNK     0      72.149  76.548  60.500  0.00  0.00     0.076 A 
HETATM    9  C   UNK     0      72.964  73.706  63.983  0.00  0.00     0.061 A 
HETATM   10  C   UNK     0      70.766  74.661  64.266  0.00  0.00     0.031 A 
HETATM   11  C   UNK     0      74.226  73.599  63.184  0.00  0.00     0.281 A 
HETATM   12  C   UNK     0      72.808  72.975  65.166  0.00  0.00     0.019 A 
HETATM   13  C   UNK     0      70.609  73.932  65.447  0.00  0.00     0.002 A 
HETATM   14  C   UNK     0      71.627  73.092  65.895  0.00  0.00     0.001 A 
ENDROOT
BRANCH   6  15
HETATM   15  C   UNK     0      74.403  76.058  59.433  0.00  0.00    -0.020 A 
HETATM   16  C   UNK     0      74.454  75.161  58.356  0.00  0.00     0.012 A 
HETATM   17  C   UNK     0      75.457  75.267  57.393  0.00  0.00     0.001 A 
HETATM   18  C   UNK     0      76.420  76.271  57.497  0.00  0.00     0.000 A 
HETATM   19  C   UNK     0      76.379  77.170  58.563  0.00  0.00     0.001 A 
HETATM   20  C   UNK     0      75.376  77.063  59.527  0.00  0.00     0.012 A 
ENDBRANCH   6  15
BRANCH   8  21
HETATM   21  O   UNK     0      71.655  77.422  59.567  0.00  0.00    -0.362 OA
HETATM   22  H   UNK     0      72.390  77.667  58.979  0.00  0.00     0.217 HD
ENDBRANCH   8  21
TORSDOF 2
ENDMDL
MODEL 6
REMARK VINA RESULT:      -8.0      1.488      6.642
REMARK  2 active torsions:
REMARK  status: ('A' for Active; 'I' for Inactive)
REMARK    1  A    between atoms: O_1  and  C_9 
REMARK    2  A    between atoms: C_7  and  C_11 
ROOT
HETATM    1  O   UNK     0      54.737  53.285  66.895  0.00  0.00    -0.265 OA
HETATM    2  N   UNK     0      55.481  55.015  70.414  0.00  0.00    -0.324 N 
HETATM    3  N   UNK     0      55.051  55.222  68.078  0.00  0.00    -0.191 NA
HETATM    4  C   UNK     0      55.750  55.886  71.539  0.00  0.00     0.196 A 
HETATM    5  C   UNK     0      55.290  55.725  69.250  0.00  0.00     0.148 A 
HETATM    6  C   UNK     0      55.413  57.187  69.521  0.00  0.00     0.051 A 
HETATM    7  C   UNK     0      55.421  53.637  70.412  0.00  0.00     0.052 A 
HETATM    8  C   UNK     0      55.676  57.224  70.843  0.00  0.00     0.076 A 
HETATM    9  C   UNK     0      55.159  52.998  69.184  0.00  0.00     0.061 A 
HETATM   10  C   UNK     0      55.605  52.848  71.551  0.00  0.00     0.031 A 
HETATM   11  C   UNK     0      54.965  53.843  67.964  0.00  0.00     0.281 A 
HETATM   12  C   UNK     0      55.083  51.604  69.101  0.00  0.00     0.019 A 
HETATM   13  C   UNK     0      55.529  51.455  71.470  0.00  0.00     0.002 A 
HETATM   14  C   UNK     0      55.268  50.836  70.249  0.00  0.00     0.001 A 
ENDROOT
BRANCH   6  15
HETATM   15  C   UNK     0      55.254  58.282  68.571  0.00  0.00    -0.020 A 
HETATM   16  C   UNK     0      54.168  58.304  67.684  0.00  0.00     0.012 A 
HETATM   17  C   UNK     0      54.015  59.351  66.775  0.00  0.00     0.001 A 
HETATM   18  C   UNK     0      54.949  60.387  66.743  0.00  0.00     0.000 A 
HETATM   19  C   UNK     0      56.034  60.376  67.620  0.00  0.00     0.001 A 
HETATM   20  C   UNK     0      56.186  59.329  68.529  0.00  0.00     0.012 A 
ENDBRANCH   6  15
BRANCH   8  21
HETATM   21  O   UNK     0      55.848  58.364  71.582  0.00  0.00    -0.362 OA
HETATM   22  H   UNK     0      56.622  58.831  71.222  0.00  0.00     0.217 HD
ENDBRANCH   8  21
TORSDOF 2
ENDMDL
MODEL 7
REMARK VINA RESULT:      -7.7      3.230      6.484
REMARK  2 active torsions:
REMARK  status: ('A' for Active; 'I' for Inactive)
REMARK    1  A    between atoms: O_1  and  C_9 
REMARK    2  A    between atoms: C_7  and  C_11 
ROOT
HETATM    1  O   UNK     0      55.704  53.015  66.963  0.00  0.00    -0.265 OA
HETATM    2  N   UNK     0      52.434  54.604  68.609  0.00  0.00    -0.324 N 
HETATM    3  N   UNK     0      54.631  54.890  67.728  0.00  0.00    -0.191 NA
HETATM    4  C   UNK     0      51.398  55.425  69.201  0.00  0.00     0.196 A 
HETATM    5  C   UNK     0      53.539  55.347  68.260  0.00  0.00     0.148 A 
HETATM    6  C   UNK     0      53.313  56.783  68.598  0.00  0.00     0.051 A 
HETATM    7  C   UNK     0      52.410  53.242  68.398  0.00  0.00     0.052 A 
HETATM    8  C   UNK     0      52.077  56.772  69.133  0.00  0.00     0.076 A 
HETATM    9  C   UNK     0      53.550  52.652  67.817  0.00  0.00     0.061 A 
HETATM   10  C   UNK     0      51.327  52.421  68.725  0.00  0.00     0.031 A 
HETATM   11  C   UNK     0      54.712  53.531  67.469  0.00  0.00     0.281 A 
HETATM   12  C   UNK     0      53.602  51.276  67.571  0.00  0.00     0.019 A 
HETATM   13  C   UNK     0      51.377  51.047  68.481  0.00  0.00     0.002 A 
HETATM   14  C   UNK     0      52.511  50.477  67.905  0.00  0.00     0.001 A 
ENDROOT
BRANCH   6  15
HETATM   15  C   UNK     0      54.221  57.902  68.368  0.00  0.00    -0.020 A 
HETATM   16  C   UNK     0      55.285  58.147  69.247  0.00  0.00     0.012 A 
HETATM   17  C   UNK     0      56.153  59.217  69.027  0.00  0.00     0.001 A 
HETATM   18  C   UNK     0      55.965  60.053  67.926  0.00  0.00     0.000 A 
HETATM   19  C   UNK     0      54.909  59.818  67.045  0.00  0.00     0.001 A 
HETATM   20  C   UNK     0      54.041  58.749  67.265  0.00  0.00     0.012 A 
ENDBRANCH   6  15
BRANCH   8  21
HETATM   21  O   UNK     0      51.400  57.876  69.580  0.00  0.00    -0.362 OA
HETATM   22  H   UNK     0      50.994  57.644  70.433  0.00  0.00     0.217 HD
ENDBRANCH   8  21
TORSDOF 2
ENDMDL
MODEL 8
REMARK VINA RESULT:      -7.4      2.383      6.641
REMARK  2 active torsions:
REMARK  status: ('A' for Active; 'I' for Inactive)
REMARK    1  A    between atoms: O_1  and  C_9 
REMARK    2  A    between atoms: C_7  and  C_11 
ROOT
HETATM    1  O   UNK     0      50.703  57.162  71.105  0.00  0.00    -0.265 OA
HETATM    2  N   UNK     0      54.115  55.310  70.178  0.00  0.00    -0.324 N 
HETATM    3  N   UNK     0      52.696  57.215  69.975  0.00  0.00    -0.191 NA
HETATM    4  C   UNK     0      55.399  54.867  69.677  0.00  0.00     0.196 A 
HETATM    5  C   UNK     0      53.788  56.564  69.715  0.00  0.00     0.148 A 
HETATM    6  C   UNK     0      54.879  57.082  68.839  0.00  0.00     0.051 A 
HETATM    7  C   UNK     0      53.252  54.622  71.006  0.00  0.00     0.052 A 
HETATM    8  C   UNK     0      55.774  56.074  68.850  0.00  0.00     0.076 A 
HETATM    9  C   UNK     0      52.040  55.251  71.351  0.00  0.00     0.061 A 
HETATM   10  C   UNK     0      53.512  53.347  71.516  0.00  0.00     0.031 A 
HETATM   11  C   UNK     0      51.760  56.616  70.803  0.00  0.00     0.281 A 
HETATM   12  C   UNK     0      51.114  54.618  72.187  0.00  0.00     0.019 A 
HETATM   13  C   UNK     0      52.589  52.713  72.350  0.00  0.00     0.002 A 
HETATM   14  C   UNK     0      51.394  53.347  72.684  0.00  0.00     0.001 A 
ENDROOT
BRANCH   6  15
HETATM   15  C   UNK     0      54.942  58.377  68.170  0.00  0.00    -0.020 A 
HETATM   16  C   UNK     0      55.844  59.359  68.605  0.00  0.00     0.012 A 
HETATM   17  C   UNK     0      55.904  60.598  67.966  0.00  0.00     0.001 A 
HETATM   18  C   UNK     0      55.062  60.867  66.887  0.00  0.00     0.000 A 
HETATM   19  C   UNK     0      54.160  59.898  66.446  0.00  0.00     0.001 A 
HETATM   20  C   UNK     0      54.100  58.660  67.085  0.00  0.00     0.012 A 
ENDBRANCH   6  15
BRANCH   8  21
HETATM   21  O   UNK     0      56.982  56.083  68.203  0.00  0.00    -0.362 OA
HETATM   22  H   UNK     0      56.901  55.502  67.427  0.00  0.00     0.217 HD
ENDBRANCH   8  21
TORSDOF 2
ENDMDL
MODEL 9
REMARK VINA RESULT:      -7.1     25.029     28.811
REMARK  2 active torsions:
REMARK  status: ('A' for Active; 'I' for Inactive)
REMARK    1  A    between atoms: O_1  and  C_9 
REMARK    2  A    between atoms: C_7  and  C_11 
ROOT
HETATM    1  O   UNK     0      74.089  73.170  62.232  0.00  0.00    -0.265 OA
HETATM    2  N   UNK     0      71.970  76.273  60.884  0.00  0.00    -0.324 N 
HETATM    3  N   UNK     0      73.934  74.927  60.768  0.00  0.00    -0.191 NA
HETATM    4  C   UNK     0      71.430  77.444  60.226  0.00  0.00     0.196 A 
HETATM    5  C   UNK     0      73.197  75.917  60.371  0.00  0.00     0.148 A 
HETATM    6  C   UNK     0      73.582  76.858  59.278  0.00  0.00     0.051 A 
HETATM    7  C   UNK     0      71.407  75.550  61.915  0.00  0.00     0.052 A 
HETATM    8  C   UNK     0      72.538  77.710  59.237  0.00  0.00     0.076 A 
HETATM    9  C   UNK     0      72.131  74.449  62.411  0.00  0.00     0.061 A 
HETATM   10  C   UNK     0      70.168  75.849  62.488  0.00  0.00     0.031 A 
HETATM   11  C   UNK     0      73.459  74.131  61.798  0.00  0.00     0.281 A 
HETATM   12  C   UNK     0      71.625  73.667  63.455  0.00  0.00     0.019 A 
HETATM   13  C   UNK     0      69.661  75.070  63.531  0.00  0.00     0.002 A 
HETATM   14  C   UNK     0      70.387  73.982  64.012  0.00  0.00     0.001 A 
ENDROOT
BRANCH   6  15
HETATM   15  C   UNK     0      74.788  76.820  58.457  0.00  0.00    -0.020 A 
HETATM   16  C   UNK     0      75.585  77.964  58.311  0.00  0.00     0.012 A 
HETATM   17  C   UNK     0      76.738  77.928  57.527  0.00  0.00     0.001 A 
HETATM   18  C   UNK     0      77.105  76.747  56.880  0.00  0.00     0.000 A 
HETATM   19  C   UNK     0      76.319  75.603  57.019  0.00  0.00     0.001 A 
HETATM   20  C   UNK     0      75.166  75.639  57.803  0.00  0.00     0.012 A 
ENDBRANCH   6  15
BRANCH   8  21
HETATM   21  O   UNK     0      72.406  78.755  58.361  0.00  0.00    -0.362 OA
HETATM   22  H   UNK     0      71.529  78.680  57.948  0.00  0.00     0.217 HD
ENDBRANCH   8  21
TORSDOF 2
ENDMDL
