MODEL 1
REMARK VINA RESULT:      -7.6      0.000      0.000
REMARK  8 active torsions:
REMARK  status: ('A' for Active; 'I' for Inactive)
REMARK    1  A    between atoms: S_1  and  C_11 
REMARK    2  A    between atoms: S_1  and  C_13 
REMARK    3  A    between atoms: O_2  and  C_12 
REMARK    4  A    between atoms: N_3  and  C_10 
REMARK    5  A    between atoms: C_7  and  C_8 
REMARK    6  A    between atoms: C_7  and  C_9 
REMARK    7  A    between atoms: C_9  and  C_12 
REMARK    8  A    between atoms: C_13  and  C_16 
ROOT
HETATM    1  N   UNK     0      56.140  51.577  70.803  0.00  0.00    -0.191 NA
HETATM    2  C   UNK     0      54.851  56.159  71.665  0.00  0.00    -0.047 A 
HETATM    3  C   UNK     0      55.515  54.991  71.293  0.00  0.00     0.030 A 
HETATM    4  C   UNK     0      53.582  56.089  72.241  0.00  0.00     0.008 A 
HETATM    5  C   UNK     0      54.908  53.750  71.495  0.00  0.00     0.045 A 
HETATM    6  C   UNK     0      52.977  54.848  72.443  0.00  0.00     0.002 A 
HETATM    7  C   UNK     0      53.640  53.679  72.069  0.00  0.00     0.022 A 
HETATM    8  C   UNK     0      55.588  52.552  71.113  0.00  0.00     0.099 C 
ENDROOT
BRANCH   2   9
HETATM    9  C   UNK     0      55.499  57.486  71.452  0.00  0.00     0.121 C 
BRANCH   9  10
HETATM   10  S   UNK     0      56.874  57.407  70.264  0.00  0.00    -0.085 SA
BRANCH  10  11
HETATM   11  C   UNK     0      56.329  58.569  69.018  0.00  0.00     0.196 A 
HETATM   12  N   UNK     0      55.184  58.411  68.363  0.00  0.00    -0.275 N 
HETATM   13  C   UNK     0      55.148  59.485  67.527  0.00  0.00     0.135 A 
HETATM   14  N   UNK     0      56.225  60.219  67.702  0.00  0.00    -0.134 NA
HETATM   15  N   UNK     0      56.988  59.610  68.678  0.00  0.00    -0.122 NA
BRANCH  12  16
HETATM   16  C   UNK     0      54.217  57.412  68.463  0.00  0.00     0.043 A 
HETATM   17  C   UNK     0      52.970  57.715  68.993  0.00  0.00     0.030 A 
HETATM   18  C   UNK     0      52.001  56.716  69.094  0.00  0.00     0.002 A 
HETATM   19  C   UNK     0      52.290  55.420  68.665  0.00  0.00     0.000 A 
HETATM   20  C   UNK     0      53.546  55.124  68.135  0.00  0.00     0.002 A 
HETATM   21  C   UNK     0      54.514  56.124  68.033  0.00  0.00     0.030 A 
ENDBRANCH  12  16
BRANCH  13  22
HETATM   22  C   UNK     0      54.047  59.751  66.581  0.00  0.00     0.083 C 
BRANCH  22  23
HETATM   23  C   UNK     0      54.315  60.979  65.688  0.00  0.00     0.033 C 
BRANCH  23  24
HETATM   24  C   UNK     0      54.027  62.295  66.396  0.00  0.00     0.164 C 
BRANCH  24  25
HETATM   25  O   UNK     0      54.585  63.357  65.635  0.00  0.00    -0.401 OA
HETATM   26  H   UNK     0      53.852  63.774  65.149  0.00  0.00     0.209 HD
ENDBRANCH  24  25
ENDBRANCH  23  24
ENDBRANCH  22  23
ENDBRANCH  13  22
ENDBRANCH  10  11
ENDBRANCH   9  10
ENDBRANCH   2   9
TORSDOF 8
ENDMDL
MODEL 2
REMARK VINA RESULT:      -7.4      1.613      2.032
REMARK  8 active torsions:
REMARK  status: ('A' for Active; 'I' for Inactive)
REMARK    1  A    between atoms: S_1  and  C_11 
REMARK    2  A    between atoms: S_1  and  C_13 
REMARK    3  A    between atoms: O_2  and  C_12 
REMARK    4  A    between atoms: N_3  and  C_10 
REMARK    5  A    between atoms: C_7  and  C_8 
REMARK    6  A    between atoms: C_7  and  C_9 
REMARK    7  A    between atoms: C_9  and  C_12 
REMARK    8  A    between atoms: C_13  and  C_16 
ROOT
HETATM    1  N   UNK     0      52.686  54.573  75.009  0.00  0.00    -0.191 NA
HETATM    2  C   UNK     0      55.490  55.069  71.099  0.00  0.00    -0.047 A 
HETATM    3  C   UNK     0      54.801  55.249  72.298  0.00  0.00     0.030 A 
HETATM    4  C   UNK     0      55.344  53.882  70.381  0.00  0.00     0.008 A 
HETATM    5  C   UNK     0      53.967  54.240  72.781  0.00  0.00     0.045 A 
HETATM    6  C   UNK     0      54.510  52.874  70.864  0.00  0.00     0.002 A 
HETATM    7  C   UNK     0      53.821  53.053  72.064  0.00  0.00     0.022 A 
HETATM    8  C   UNK     0      53.261  54.424  74.010  0.00  0.00     0.099 C 
ENDROOT
BRANCH   2   9
HETATM    9  C   UNK     0      56.381  56.148  70.581  0.00  0.00     0.121 C 
BRANCH   9  10
HETATM   10  S   UNK     0      55.880  57.800  71.152  0.00  0.00    -0.085 SA
BRANCH  10  11
HETATM   11  C   UNK     0      55.722  58.675  69.599  0.00  0.00     0.196 A 
HETATM   12  N   UNK     0      54.735  58.423  68.748  0.00  0.00    -0.275 N 
HETATM   13  C   UNK     0      54.976  59.283  67.721  0.00  0.00     0.135 A 
HETATM   14  N   UNK     0      56.053  59.991  67.979  0.00  0.00    -0.134 NA
HETATM   15  N   UNK     0      56.531  59.584  69.209  0.00  0.00    -0.122 NA
BRANCH  12  16
HETATM   16  C   UNK     0      53.680  57.514  68.832  0.00  0.00     0.043 A 
HETATM   17  C   UNK     0      52.517  57.872  69.499  0.00  0.00     0.030 A 
HETATM   18  C   UNK     0      51.462  56.963  69.584  0.00  0.00     0.002 A 
HETATM   19  C   UNK     0      51.582  55.702  68.999  0.00  0.00     0.000 A 
HETATM   20  C   UNK     0      52.754  55.350  68.331  0.00  0.00     0.002 A 
HETATM   21  C   UNK     0      53.808  56.260  68.246  0.00  0.00     0.030 A 
ENDBRANCH  12  16
BRANCH  13  22
HETATM   22  C   UNK     0      54.132  59.377  66.514  0.00  0.00     0.083 C 
BRANCH  22  23
HETATM   23  C   UNK     0      53.865  60.834  66.088  0.00  0.00     0.033 C 
BRANCH  23  24
HETATM   24  C   UNK     0      54.677  61.248  64.868  0.00  0.00     0.164 C 
BRANCH  24  25
HETATM   25  O   UNK     0      56.007  61.536  65.278  0.00  0.00    -0.401 OA
HETATM   26  H   UNK     0      55.951  62.230  65.958  0.00  0.00     0.209 HD
ENDBRANCH  24  25
ENDBRANCH  23  24
ENDBRANCH  22  23
ENDBRANCH  13  22
ENDBRANCH  10  11
ENDBRANCH   9  10
ENDBRANCH   2   9
TORSDOF 8
ENDMDL
MODEL 3
REMARK VINA RESULT:      -7.2     22.809     25.822
REMARK  8 active torsions:
REMARK  status: ('A' for Active; 'I' for Inactive)
REMARK    1  A    between atoms: S_1  and  C_11 
REMARK    2  A    between atoms: S_1  and  C_13 
REMARK    3  A    between atoms: O_2  and  C_12 
REMARK    4  A    between atoms: N_3  and  C_10 
REMARK    5  A    between atoms: C_7  and  C_8 
REMARK    6  A    between atoms: C_7  and  C_9 
REMARK    7  A    between atoms: C_9  and  C_12 
REMARK    8  A    between atoms: C_13  and  C_16 
ROOT
HETATM    1  N   UNK     0      68.939  71.507  62.836  0.00  0.00    -0.191 NA
HETATM    2  C   UNK     0      72.030  75.159  62.121  0.00  0.00    -0.047 A 
HETATM    3  C   UNK     0      70.921  74.367  62.419  0.00  0.00     0.030 A 
HETATM    4  C   UNK     0      73.216  74.565  61.686  0.00  0.00     0.008 A 
HETATM    5  C   UNK     0      70.998  72.980  62.283  0.00  0.00     0.045 A 
HETATM    6  C   UNK     0      73.292  73.179  61.551  0.00  0.00     0.002 A 
HETATM    7  C   UNK     0      72.183  72.387  61.850  0.00  0.00     0.022 A 
HETATM    8  C   UNK     0      69.863  72.168  62.589  0.00  0.00     0.099 C 
ENDROOT
BRANCH   2   9
HETATM    9  C   UNK     0      71.949  76.642  62.264  0.00  0.00     0.121 C 
BRANCH   9  10
HETATM   10  S   UNK     0      70.468  77.173  63.176  0.00  0.00    -0.085 SA
BRANCH  10  11
HETATM   11  C   UNK     0      71.196  77.838  64.670  0.00  0.00     0.196 A 
HETATM   12  N   UNK     0      71.713  77.054  65.608  0.00  0.00    -0.275 N 
HETATM   13  C   UNK     0      72.149  77.936  66.550  0.00  0.00     0.135 A 
HETATM   14  N   UNK     0      71.890  79.164  66.161  0.00  0.00    -0.134 NA
HETATM   15  N   UNK     0      71.268  79.087  64.931  0.00  0.00    -0.122 NA
BRANCH  12  16
HETATM   16  C   UNK     0      71.814  75.665  65.670  0.00  0.00     0.043 A 
HETATM   17  C   UNK     0      70.693  74.909  65.989  0.00  0.00     0.030 A 
HETATM   18  C   UNK     0      70.793  73.519  66.052  0.00  0.00     0.002 A 
HETATM   19  C   UNK     0      72.016  72.897  65.795  0.00  0.00     0.000 A 
HETATM   20  C   UNK     0      73.136  73.664  65.476  0.00  0.00     0.002 A 
HETATM   21  C   UNK     0      73.035  75.054  65.413  0.00  0.00     0.030 A 
ENDBRANCH  12  16
BRANCH  13  22
HETATM   22  C   UNK     0      72.809  77.532  67.807  0.00  0.00     0.083 C 
BRANCH  22  23
HETATM   23  C   UNK     0      72.007  77.944  69.058  0.00  0.00     0.033 C 
BRANCH  23  24
HETATM   24  C   UNK     0      70.631  77.294  69.114  0.00  0.00     0.164 C 
BRANCH  24  25
HETATM   25  O   UNK     0      70.364  76.902  70.453  0.00  0.00    -0.401 OA
HETATM   26  H   UNK     0      69.813  77.599  70.849  0.00  0.00     0.209 HD
ENDBRANCH  24  25
ENDBRANCH  23  24
ENDBRANCH  22  23
ENDBRANCH  13  22
ENDBRANCH  10  11
ENDBRANCH   9  10
ENDBRANCH   2   9
TORSDOF 8
ENDMDL
MODEL 4
REMARK VINA RESULT:      -7.2      3.591      7.659
REMARK  8 active torsions:
REMARK  status: ('A' for Active; 'I' for Inactive)
REMARK    1  A    between atoms: S_1  and  C_11 
REMARK    2  A    between atoms: S_1  and  C_13 
REMARK    3  A    between atoms: O_2  and  C_12 
REMARK    4  A    between atoms: N_3  and  C_10 
REMARK    5  A    between atoms: C_7  and  C_8 
REMARK    6  A    between atoms: C_7  and  C_9 
REMARK    7  A    between atoms: C_9  and  C_12 
REMARK    8  A    between atoms: C_13  and  C_16 
ROOT
HETATM    1  N   UNK     0      54.167  61.093  64.881  0.00  0.00    -0.191 NA
HETATM    2  C   UNK     0      54.271  58.022  68.618  0.00  0.00    -0.047 A 
HETATM    3  C   UNK     0      53.961  58.716  67.449  0.00  0.00     0.030 A 
HETATM    4  C   UNK     0      55.362  58.415  69.394  0.00  0.00     0.008 A 
HETATM    5  C   UNK     0      54.743  59.803  67.054  0.00  0.00     0.045 A 
HETATM    6  C   UNK     0      56.143  59.501  68.999  0.00  0.00     0.002 A 
HETATM    7  C   UNK     0      55.833  60.195  67.829  0.00  0.00     0.022 A 
HETATM    8  C   UNK     0      54.425  60.514  65.855  0.00  0.00     0.099 C 
ENDROOT
BRANCH   2   9
HETATM    9  C   UNK     0      53.435  56.862  69.042  0.00  0.00     0.121 C 
BRANCH   9  10
HETATM   10  S   UNK     0      54.392  55.606  69.943  0.00  0.00    -0.085 SA
BRANCH  10  11
HETATM   11  C   UNK     0      53.652  55.702  71.570  0.00  0.00     0.196 A 
HETATM   12  N   UNK     0      53.846  54.761  72.487  0.00  0.00    -0.275 N 
HETATM   13  C   UNK     0      53.127  55.207  73.553  0.00  0.00     0.135 A 
HETATM   14  N   UNK     0      52.551  56.350  73.253  0.00  0.00    -0.134 NA
HETATM   15  N   UNK     0      52.902  56.662  71.955  0.00  0.00    -0.122 NA
BRANCH  12  16
HETATM   16  C   UNK     0      54.593  53.585  72.429  0.00  0.00     0.043 A 
HETATM   17  C   UNK     0      55.947  53.616  72.735  0.00  0.00     0.030 A 
HETATM   18  C   UNK     0      56.695  52.439  72.677  0.00  0.00     0.002 A 
HETATM   19  C   UNK     0      56.080  51.241  72.312  0.00  0.00     0.000 A 
HETATM   20  C   UNK     0      54.719  51.219  72.006  0.00  0.00     0.002 A 
HETATM   21  C   UNK     0      53.972  52.396  72.065  0.00  0.00     0.030 A 
ENDBRANCH  12  16
BRANCH  13  22
HETATM   22  C   UNK     0      53.032  54.485  74.837  0.00  0.00     0.083 C 
BRANCH  22  23
HETATM   23  C   UNK     0      51.622  54.556  75.456  0.00  0.00     0.033 C 
BRANCH  23  24
HETATM   24  C   UNK     0      51.526  55.572  76.586  0.00  0.00     0.164 C 
BRANCH  24  25
HETATM   25  O   UNK     0      51.057  56.804  76.057  0.00  0.00    -0.401 OA
HETATM   26  H   UNK     0      50.576  57.256  76.772  0.00  0.00     0.209 HD
ENDBRANCH  24  25
ENDBRANCH  23  24
ENDBRANCH  22  23
ENDBRANCH  13  22
ENDBRANCH  10  11
ENDBRANCH   9  10
ENDBRANCH   2   9
TORSDOF 8
ENDMDL
MODEL 5
REMARK VINA RESULT:      -6.9      3.951      7.571
REMARK  8 active torsions:
REMARK  status: ('A' for Active; 'I' for Inactive)
REMARK    1  A    between atoms: S_1  and  C_11 
REMARK    2  A    between atoms: S_1  and  C_13 
REMARK    3  A    between atoms: O_2  and  C_12 
REMARK    4  A    between atoms: N_3  and  C_10 
REMARK    5  A    between atoms: C_7  and  C_8 
REMARK    6  A    between atoms: C_7  and  C_9 
REMARK    7  A    between atoms: C_9  and  C_12 
REMARK    8  A    between atoms: C_13  and  C_16 
ROOT
HETATM    1  N   UNK     0      55.634  60.502  66.864  0.00  0.00    -0.191 NA
HETATM    2  C   UNK     0      54.923  57.109  70.238  0.00  0.00    -0.047 A 
HETATM    3  C   UNK     0      55.452  58.093  69.403  0.00  0.00     0.030 A 
HETATM    4  C   UNK     0      53.597  56.702  70.085  0.00  0.00     0.008 A 
HETATM    5  C   UNK     0      54.653  58.673  68.416  0.00  0.00     0.045 A 
HETATM    6  C   UNK     0      52.800  57.281  69.098  0.00  0.00     0.002 A 
HETATM    7  C   UNK     0      53.328  58.267  68.263  0.00  0.00     0.022 A 
HETATM    8  C   UNK     0      55.194  59.681  67.560  0.00  0.00     0.099 C 
ENDROOT
BRANCH   2   9
HETATM    9  C   UNK     0      55.776  56.488  71.292  0.00  0.00     0.121 C 
BRANCH   9  10
HETATM   10  S   UNK     0      54.831  55.401  72.402  0.00  0.00    -0.085 SA
BRANCH  10  11
HETATM   11  C   UNK     0      55.722  53.859  72.225  0.00  0.00     0.196 A 
HETATM   12  N   UNK     0      55.553  53.067  71.173  0.00  0.00    -0.275 N 
HETATM   13  C   UNK     0      56.394  52.026  71.422  0.00  0.00     0.135 A 
HETATM   14  N   UNK     0      57.013  52.221  72.566  0.00  0.00    -0.134 NA
HETATM   15  N   UNK     0      56.565  53.421  73.080  0.00  0.00    -0.122 NA
BRANCH  12  16
HETATM   16  C   UNK     0      54.730  53.212  70.055  0.00  0.00     0.043 A 
HETATM   17  C   UNK     0      55.256  53.730  68.879  0.00  0.00     0.030 A 
HETATM   18  C   UNK     0      54.433  53.877  67.762  0.00  0.00     0.002 A 
HETATM   19  C   UNK     0      53.091  53.504  67.832  0.00  0.00     0.000 A 
HETATM   20  C   UNK     0      52.571  52.984  69.017  0.00  0.00     0.002 A 
HETATM   21  C   UNK     0      53.394  52.838  70.134  0.00  0.00     0.030 A 
ENDBRANCH  12  16
BRANCH  13  22
HETATM   22  C   UNK     0      56.559  50.870  70.519  0.00  0.00     0.083 C 
BRANCH  22  23
HETATM   23  C   UNK     0      55.925  49.582  71.081  0.00  0.00     0.033 C 
BRANCH  23  24
HETATM   24  C   UNK     0      56.935  48.693  71.794  0.00  0.00     0.164 C 
BRANCH  24  25
HETATM   25  O   UNK     0      56.233  47.748  72.590  0.00  0.00    -0.401 OA
HETATM   26  H   UNK     0      55.935  48.215  73.390  0.00  0.00     0.209 HD
ENDBRANCH  24  25
ENDBRANCH  23  24
ENDBRANCH  22  23
ENDBRANCH  13  22
ENDBRANCH  10  11
ENDBRANCH   9  10
ENDBRANCH   2   9
TORSDOF 8
ENDMDL
MODEL 6
REMARK VINA RESULT:      -6.8      3.703      7.623
REMARK  8 active torsions:
REMARK  status: ('A' for Active; 'I' for Inactive)
REMARK    1  A    between atoms: S_1  and  C_11 
REMARK    2  A    between atoms: S_1  and  C_13 
REMARK    3  A    between atoms: O_2  and  C_12 
REMARK    4  A    between atoms: N_3  and  C_10 
REMARK    5  A    between atoms: C_7  and  C_8 
REMARK    6  A    between atoms: C_7  and  C_9 
REMARK    7  A    between atoms: C_9  and  C_12 
REMARK    8  A    between atoms: C_13  and  C_16 
ROOT
HETATM    1  N   UNK     0      54.556  61.504  65.192  0.00  0.00    -0.191 NA
HETATM    2  C   UNK     0      54.378  57.814  68.314  0.00  0.00    -0.047 A 
HETATM    3  C   UNK     0      54.140  58.724  67.285  0.00  0.00     0.030 A 
HETATM    4  C   UNK     0      55.471  57.990  69.164  0.00  0.00     0.008 A 
HETATM    5  C   UNK     0      54.996  59.812  67.104  0.00  0.00     0.045 A 
HETATM    6  C   UNK     0      56.326  59.077  68.982  0.00  0.00     0.002 A 
HETATM    7  C   UNK     0      56.089  59.987  67.952  0.00  0.00     0.022 A 
HETATM    8  C   UNK     0      54.753  60.745  66.049  0.00  0.00     0.099 C 
ENDROOT
BRANCH   2   9
HETATM    9  C   UNK     0      53.462  56.652  68.510  0.00  0.00     0.121 C 
BRANCH   9  10
HETATM   10  S   UNK     0      54.221  55.325  69.494  0.00  0.00    -0.085 SA
BRANCH  10  11
HETATM   11  C   UNK     0      53.537  55.655  71.115  0.00  0.00     0.196 A 
HETATM   12  N   UNK     0      53.782  54.867  72.154  0.00  0.00    -0.275 N 
HETATM   13  C   UNK     0      53.091  55.457  73.168  0.00  0.00     0.135 A 
HETATM   14  N   UNK     0      52.482  56.533  72.721  0.00  0.00    -0.134 NA
HETATM   15  N   UNK     0      52.781  56.651  71.379  0.00  0.00    -0.122 NA
BRANCH  12  16
HETATM   16  C   UNK     0      54.551  53.706  72.246  0.00  0.00     0.043 A 
HETATM   17  C   UNK     0      53.971  52.476  71.968  0.00  0.00     0.030 A 
HETATM   18  C   UNK     0      54.738  51.314  72.061  0.00  0.00     0.002 A 
HETATM   19  C   UNK     0      56.081  51.395  72.432  0.00  0.00     0.000 A 
HETATM   20  C   UNK     0      56.655  52.635  72.710  0.00  0.00     0.002 A 
HETATM   21  C   UNK     0      55.887  53.796  72.617  0.00  0.00     0.030 A 
ENDBRANCH  12  16
BRANCH  13  22
HETATM   22  C   UNK     0      53.056  54.936  74.549  0.00  0.00     0.083 C 
BRANCH  22  23
HETATM   23  C   UNK     0      52.224  55.822  75.496  0.00  0.00     0.033 C 
BRANCH  23  24
HETATM   24  C   UNK     0      52.465  55.501  76.965  0.00  0.00     0.164 C 
BRANCH  24  25
HETATM   25  O   UNK     0      53.843  55.691  77.256  0.00  0.00    -0.401 OA
HETATM   26  H   UNK     0      53.907  56.474  77.830  0.00  0.00     0.209 HD
ENDBRANCH  24  25
ENDBRANCH  23  24
ENDBRANCH  22  23
ENDBRANCH  13  22
ENDBRANCH  10  11
ENDBRANCH   9  10
ENDBRANCH   2   9
TORSDOF 8
ENDMDL
MODEL 7
REMARK VINA RESULT:      -6.8     19.459     20.928
REMARK  8 active torsions:
REMARK  status: ('A' for Active; 'I' for Inactive)
REMARK    1  A    between atoms: S_1  and  C_11 
REMARK    2  A    between atoms: S_1  and  C_13 
REMARK    3  A    between atoms: O_2  and  C_12 
REMARK    4  A    between atoms: N_3  and  C_10 
REMARK    5  A    between atoms: C_7  and  C_8 
REMARK    6  A    between atoms: C_7  and  C_9 
REMARK    7  A    between atoms: C_9  and  C_12 
REMARK    8  A    between atoms: C_13  and  C_16 
ROOT
HETATM    1  N   UNK     0      61.282  49.989  52.785  0.00  0.00    -0.191 NA
HETATM    2  C   UNK     0      64.559  53.321  51.539  0.00  0.00    -0.047 A 
HETATM    3  C   UNK     0      63.727  52.204  51.604  0.00  0.00     0.030 A 
HETATM    4  C   UNK     0      64.497  54.297  52.534  0.00  0.00     0.008 A 
HETATM    5  C   UNK     0      62.830  52.064  52.664  0.00  0.00     0.045 A 
HETATM    6  C   UNK     0      63.600  54.156  53.593  0.00  0.00     0.002 A 
HETATM    7  C   UNK     0      62.766  53.039  53.658  0.00  0.00     0.022 A 
HETATM    8  C   UNK     0      61.976  50.919  52.730  0.00  0.00     0.099 C 
ENDROOT
BRANCH   2   9
HETATM    9  C   UNK     0      65.520  53.472  50.408  0.00  0.00     0.121 C 
BRANCH   9  10
HETATM   10  S   UNK     0      66.776  52.157  50.381  0.00  0.00    -0.085 SA
BRANCH  10  11
HETATM   11  C   UNK     0      67.907  52.726  51.646  0.00  0.00     0.196 A 
HETATM   12  N   UNK     0      67.956  52.164  52.848  0.00  0.00    -0.275 N 
HETATM   13  C   UNK     0      68.923  52.876  53.490  0.00  0.00     0.135 A 
HETATM   14  N   UNK     0      69.400  53.800  52.686  0.00  0.00    -0.134 NA
HETATM   15  N   UNK     0      68.727  53.692  51.485  0.00  0.00    -0.122 NA
BRANCH  12  16
HETATM   16  C   UNK     0      67.224  51.102  53.379  0.00  0.00     0.043 A 
HETATM   17  C   UNK     0      66.133  51.363  54.197  0.00  0.00     0.030 A 
HETATM   18  C   UNK     0      65.401  50.302  54.730  0.00  0.00     0.002 A 
HETATM   19  C   UNK     0      65.768  48.987  54.439  0.00  0.00     0.000 A 
HETATM   20  C   UNK     0      66.865  48.735  53.617  0.00  0.00     0.002 A 
HETATM   21  C   UNK     0      67.597  49.796  53.084  0.00  0.00     0.030 A 
ENDBRANCH  12  16
BRANCH  13  22
HETATM   22  C   UNK     0      69.345  52.617  54.880  0.00  0.00     0.083 C 
BRANCH  22  23
HETATM   23  C   UNK     0      69.078  53.815  55.814  0.00  0.00     0.033 C 
BRANCH  23  24
HETATM   24  C   UNK     0      67.654  54.342  55.703  0.00  0.00     0.164 C 
BRANCH  24  25
HETATM   25  O   UNK     0      67.621  55.374  54.728  0.00  0.00    -0.401 OA
HETATM   26  H   UNK     0      67.360  56.191  55.187  0.00  0.00     0.209 HD
ENDBRANCH  24  25
ENDBRANCH  23  24
ENDBRANCH  22  23
ENDBRANCH  13  22
ENDBRANCH  10  11
ENDBRANCH   9  10
ENDBRANCH   2   9
TORSDOF 8
ENDMDL
MODEL 8
REMARK VINA RESULT:      -6.8     21.424     23.428
REMARK  8 active torsions:
REMARK  status: ('A' for Active; 'I' for Inactive)
REMARK    1  A    between atoms: S_1  and  C_11 
REMARK    2  A    between atoms: S_1  and  C_13 
REMARK    3  A    between atoms: O_2  and  C_12 
REMARK    4  A    between atoms: N_3  and  C_10 
REMARK    5  A    between atoms: C_7  and  C_8 
REMARK    6  A    between atoms: C_7  and  C_9 
REMARK    7  A    between atoms: C_9  and  C_12 
REMARK    8  A    between atoms: C_13  and  C_16 
ROOT
HETATM    1  N   UNK     0      61.936  76.024  64.310  0.00  0.00    -0.191 NA
HETATM    2  C   UNK     0      65.537  74.314  61.569  0.00  0.00    -0.047 A 
HETATM    3  C   UNK     0      64.728  74.748  62.620  0.00  0.00     0.030 A 
HETATM    4  C   UNK     0      65.058  74.349  60.259  0.00  0.00     0.008 A 
HETATM    5  C   UNK     0      63.439  75.217  62.360  0.00  0.00     0.045 A 
HETATM    6  C   UNK     0      63.770  74.817  60.000  0.00  0.00     0.002 A 
HETATM    7  C   UNK     0      62.961  75.251  61.051  0.00  0.00     0.022 A 
HETATM    8  C   UNK     0      62.610  75.661  63.435  0.00  0.00     0.099 C 
ENDROOT
BRANCH   2   9
HETATM    9  C   UNK     0      66.915  73.815  61.846  0.00  0.00     0.121 C 
BRANCH   9  10
HETATM   10  S   UNK     0      67.199  73.495  63.613  0.00  0.00    -0.085 SA
BRANCH  10  11
HETATM   11  C   UNK     0      68.880  72.881  63.593  0.00  0.00     0.196 A 
HETATM   12  N   UNK     0      69.867  73.517  64.212  0.00  0.00    -0.275 N 
HETATM   13  C   UNK     0      70.954  72.737  63.956  0.00  0.00     0.135 A 
HETATM   14  N   UNK     0      70.596  71.704  63.226  0.00  0.00    -0.134 NA
HETATM   15  N   UNK     0      69.239  71.810  62.996  0.00  0.00    -0.122 NA
BRANCH  12  16
HETATM   16  C   UNK     0      69.856  74.697  64.955  0.00  0.00     0.043 A 
HETATM   17  C   UNK     0      69.668  74.640  66.329  0.00  0.00     0.030 A 
HETATM   18  C   UNK     0      69.656  75.820  67.074  0.00  0.00     0.002 A 
HETATM   19  C   UNK     0      69.832  77.048  66.435  0.00  0.00     0.000 A 
HETATM   20  C   UNK     0      70.019  77.096  65.053  0.00  0.00     0.002 A 
HETATM   21  C   UNK     0      70.032  75.915  64.310  0.00  0.00     0.030 A 
ENDBRANCH  12  16
BRANCH  13  22
HETATM   22  C   UNK     0      72.313  73.039  64.445  0.00  0.00     0.083 C 
BRANCH  22  23
HETATM   23  C   UNK     0      72.641  72.321  65.769  0.00  0.00     0.033 C 
BRANCH  23  24
HETATM   24  C   UNK     0      73.656  71.200  65.595  0.00  0.00     0.164 C 
BRANCH  24  25
HETATM   25  O   UNK     0      73.580  70.716  64.261  0.00  0.00    -0.401 OA
HETATM   26  H   UNK     0      74.486  70.719  63.905  0.00  0.00     0.209 HD
ENDBRANCH  24  25
ENDBRANCH  23  24
ENDBRANCH  22  23
ENDBRANCH  13  22
ENDBRANCH  10  11
ENDBRANCH   9  10
ENDBRANCH   2   9
TORSDOF 8
ENDMDL
MODEL 9
REMARK VINA RESULT:      -6.8      4.213      7.024
REMARK  8 active torsions:
REMARK  status: ('A' for Active; 'I' for Inactive)
REMARK    1  A    between atoms: S_1  and  C_11 
REMARK    2  A    between atoms: S_1  and  C_13 
REMARK    3  A    between atoms: O_2  and  C_12 
REMARK    4  A    between atoms: N_3  and  C_10 
REMARK    5  A    between atoms: C_7  and  C_8 
REMARK    6  A    between atoms: C_7  and  C_9 
REMARK    7  A    between atoms: C_9  and  C_12 
REMARK    8  A    between atoms: C_13  and  C_16 
ROOT
HETATM    1  N   UNK     0      57.820  58.564  70.104  0.00  0.00    -0.191 NA
HETATM    2  C   UNK     0      53.345  56.992  69.154  0.00  0.00    -0.047 A 
HETATM    3  C   UNK     0      54.461  57.699  69.598  0.00  0.00     0.030 A 
HETATM    4  C   UNK     0      53.509  55.835  68.392  0.00  0.00     0.008 A 
HETATM    5  C   UNK     0      55.744  57.251  69.279  0.00  0.00     0.045 A 
HETATM    6  C   UNK     0      54.791  55.387  68.073  0.00  0.00     0.002 A 
HETATM    7  C   UNK     0      55.908  56.095  68.517  0.00  0.00     0.022 A 
HETATM    8  C   UNK     0      56.888  57.975  69.734  0.00  0.00     0.099 C 
ENDROOT
BRANCH   2   9
HETATM    9  C   UNK     0      51.973  57.470  69.496  0.00  0.00     0.121 C 
BRANCH   9  10
HETATM   10  S   UNK     0      50.885  56.124  70.053  0.00  0.00    -0.085 SA
BRANCH  10  11
HETATM   11  C   UNK     0      51.031  56.268  71.831  0.00  0.00     0.196 A 
HETATM   12  N   UNK     0      52.018  55.688  72.504  0.00  0.00    -0.275 N 
HETATM   13  C   UNK     0      51.766  56.036  73.796  0.00  0.00     0.135 A 
HETATM   14  N   UNK     0      50.685  56.782  73.851  0.00  0.00    -0.134 NA
HETATM   15  N   UNK     0      50.214  56.925  72.561  0.00  0.00    -0.122 NA
BRANCH  12  16
HETATM   16  C   UNK     0      53.079  54.903  72.054  0.00  0.00     0.043 A 
HETATM   17  C   UNK     0      52.819  53.692  71.426  0.00  0.00     0.030 A 
HETATM   18  C   UNK     0      53.880  52.906  70.976  0.00  0.00     0.002 A 
HETATM   19  C   UNK     0      55.194  53.340  71.159  0.00  0.00     0.000 A 
HETATM   20  C   UNK     0      55.446  54.557  71.790  0.00  0.00     0.002 A 
HETATM   21  C   UNK     0      54.384  55.343  72.240  0.00  0.00     0.030 A 
ENDBRANCH  12  16
BRANCH  13  22
HETATM   22  C   UNK     0      52.606  55.620  74.936  0.00  0.00     0.083 C 
BRANCH  22  23
HETATM   23  C   UNK     0      52.040  56.087  76.292  0.00  0.00     0.033 C 
BRANCH  23  24
HETATM   24  C   UNK     0      53.019  55.881  77.440  0.00  0.00     0.164 C 
BRANCH  24  25
HETATM   25  O   UNK     0      53.286  57.138  78.045  0.00  0.00    -0.401 OA
HETATM   26  H   UNK     0      52.462  57.428  78.475  0.00  0.00     0.209 HD
ENDBRANCH  24  25
ENDBRANCH  23  24
ENDBRANCH  22  23
ENDBRANCH  13  22
ENDBRANCH  10  11
ENDBRANCH   9  10
ENDBRANCH   2   9
TORSDOF 8
ENDMDL
