MODEL 1
REMARK VINA RESULT:      -7.9      0.000      0.000
REMARK  9 active torsions:
REMARK  status: ('A' for Active; 'I' for Inactive)
REMARK    1  A    between atoms: N_4  and  C_8 
REMARK       I    between atoms: N_4  and  C_13 
REMARK    2  A    between atoms: N_5  and  C_14 
REMARK    3  A    between atoms: N_5  and  C_15 
REMARK       I    between atoms: N_5  and  C_16 
REMARK       I    between atoms: N_6  and  C_27 
REMARK    4  A    between atoms: N_6  and  C_28 
REMARK    5  A    between atoms: C_13  and  C_14 
REMARK    6  A    between atoms: C_16  and  C_17 
REMARK    7  A    between atoms: C_17  and  C_19 
REMARK    8  A    between atoms: C_19  and  C_22 
REMARK    9  A    between atoms: C_22  and  C_27 
ROOT
HETATM    1  O   UNK     0      53.306  56.731  72.069  0.00  0.00    -0.273 OA
HETATM    2  N   UNK     0      52.921  55.726  69.989  0.00  0.00    -0.309 N 
HETATM    3  C   UNK     0      53.421  55.771  71.305  0.00  0.00     0.224 C 
ENDROOT
BRANCH   2   4
HETATM    4  C   UNK     0      52.201  56.870  69.414  0.00  0.00     0.235 C 
BRANCH   4   5
HETATM    5  C   UNK     0      53.196  57.886  68.895  0.00  0.00     0.236 C 
HETATM    6  O   UNK     0      52.996  58.573  67.897  0.00  0.00    -0.272 OA
HETATM    7  N   UNK     0      54.355  57.896  69.657  0.00  0.00    -0.355 N 
HETATM    8  H   UNK     0      54.403  57.311  70.487  0.00  0.00     0.162 HD
BRANCH   7   9
HETATM    9  C   UNK     0      55.491  58.734  69.358  0.00  0.00     0.084 C 
HETATM   10  C   UNK     0      56.614  58.551  70.372  0.00  0.00     0.025 C 
HETATM   11  C   UNK     0      57.382  57.320  69.895  0.00  0.00     0.002 C 
HETATM   12  C   UNK     0      57.052  57.158  68.411  0.00  0.00     0.002 C 
HETATM   13  C   UNK     0      56.154  58.336  68.045  0.00  0.00     0.025 C 
ENDBRANCH   7   9
ENDBRANCH   4   5
ENDBRANCH   2   4
BRANCH   2  14
HETATM   14  C   UNK     0      53.122  54.534  69.189  0.00  0.00     0.044 A 
HETATM   15  C   UNK     0      52.179  53.506  69.187  0.00  0.00    -0.035 A 
HETATM   16  C   UNK     0      52.389  52.367  68.411  0.00  0.00     0.009 A 
HETATM   17  C   UNK     0      50.933  53.600  70.008  0.00  0.00     0.050 C 
HETATM   18  C   UNK     0      53.543  52.255  67.635  0.00  0.00     0.007 A 
HETATM   19  C   UNK     0      54.487  53.283  67.636  0.00  0.00    -0.060 A 
HETATM   20  C   UNK     0      54.276  54.422  68.413  0.00  0.00     0.037 A 
HETATM   21  C   UNK     0      55.720  53.162  66.807  0.00  0.00     0.048 C 
ENDBRANCH   2  14
BRANCH   3  22
HETATM   22  C   UNK     0      54.157  54.517  71.771  0.00  0.00     0.104 C 
BRANCH  22  23
HETATM   23  C   UNK     0      53.658  53.990  73.120  0.00  0.00     0.019 C 
BRANCH  23  24
HETATM   24  C   UNK     0      54.756  53.435  74.033  0.00  0.00     0.103 C 
BRANCH  24  25
HETATM   25  C   UNK     0      55.833  52.702  73.251  0.00  0.00     0.223 C 
HETATM   26  O   UNK     0      56.984  53.126  73.230  0.00  0.00    -0.273 OA
HETATM   27  N   UNK     0      55.324  51.589  72.591  0.00  0.00    -0.312 N 
HETATM   28  H   UNK     0      54.339  51.367  72.707  0.00  0.00     0.170 HD
BRANCH  27  29
HETATM   29  C   UNK     0      56.020  50.692  71.747  0.00  0.00     0.129 A 
HETATM   30  N   UNK     0      56.519  49.557  72.284  0.00  0.00    -0.243 NA
HETATM   31  C   UNK     0      57.176  48.731  71.438  0.00  0.00     0.119 A 
HETATM   32  C   UNK     0      57.356  48.987  70.088  0.00  0.00     0.019 A 
HETATM   33  C   UNK     0      56.828  50.165  69.573  0.00  0.00     0.005 A 
HETATM   34  C   UNK     0      56.145  51.039  70.411  0.00  0.00     0.050 A 
ENDBRANCH  27  29
ENDBRANCH  24  25
ENDBRANCH  23  24
ENDBRANCH  22  23
ENDBRANCH   3  22
TORSDOF 9
ENDMDL
MODEL 2
REMARK VINA RESULT:      -7.8     24.812     29.220
REMARK  9 active torsions:
REMARK  status: ('A' for Active; 'I' for Inactive)
REMARK    1  A    between atoms: N_4  and  C_8 
REMARK       I    between atoms: N_4  and  C_13 
REMARK    2  A    between atoms: N_5  and  C_14 
REMARK    3  A    between atoms: N_5  and  C_15 
REMARK       I    between atoms: N_5  and  C_16 
REMARK       I    between atoms: N_6  and  C_27 
REMARK    4  A    between atoms: N_6  and  C_28 
REMARK    5  A    between atoms: C_13  and  C_14 
REMARK    6  A    between atoms: C_16  and  C_17 
REMARK    7  A    between atoms: C_17  and  C_19 
REMARK    8  A    between atoms: C_19  and  C_22 
REMARK    9  A    between atoms: C_22  and  C_27 
ROOT
HETATM    1  O   UNK     0      69.388  76.801  62.235  0.00  0.00    -0.273 OA
HETATM    2  N   UNK     0      70.691  75.068  63.120  0.00  0.00    -0.309 N 
HETATM    3  C   UNK     0      70.432  76.146  62.252  0.00  0.00     0.224 C 
ENDROOT
BRANCH   2   4
HETATM    4  C   UNK     0      69.692  74.632  64.105  0.00  0.00     0.235 C 
BRANCH   4   5
HETATM    5  C   UNK     0      68.768  73.613  63.472  0.00  0.00     0.236 C 
HETATM    6  O   UNK     0      69.062  72.428  63.345  0.00  0.00    -0.272 OA
HETATM    7  N   UNK     0      67.595  74.201  63.023  0.00  0.00    -0.355 N 
HETATM    8  H   UNK     0      67.435  75.187  63.212  0.00  0.00     0.162 HD
BRANCH   7   9
HETATM    9  C   UNK     0      66.557  73.472  62.336  0.00  0.00     0.084 C 
HETATM   10  C   UNK     0      65.239  73.505  63.099  0.00  0.00     0.025 C 
HETATM   11  C   UNK     0      64.586  74.828  62.705  0.00  0.00     0.002 C 
HETATM   12  C   UNK     0      65.231  75.248  61.384  0.00  0.00     0.002 C 
HETATM   13  C   UNK     0      66.195  74.126  61.008  0.00  0.00     0.025 C 
ENDBRANCH   7   9
ENDBRANCH   4   5
ENDBRANCH   2   4
BRANCH   2  14
HETATM   14  C   UNK     0      71.963  74.376  63.040  0.00  0.00     0.044 A 
HETATM   15  C   UNK     0      73.008  74.700  63.906  0.00  0.00    -0.035 A 
HETATM   16  C   UNK     0      74.224  74.023  63.815  0.00  0.00     0.009 A 
HETATM   17  C   UNK     0      72.852  75.766  64.941  0.00  0.00     0.050 C 
HETATM   18  C   UNK     0      74.396  73.022  62.858  0.00  0.00     0.007 A 
HETATM   19  C   UNK     0      73.350  72.699  61.992  0.00  0.00    -0.060 A 
HETATM   20  C   UNK     0      72.134  73.376  62.083  0.00  0.00     0.037 A 
HETATM   21  C   UNK     0      73.534  71.630  60.969  0.00  0.00     0.048 C 
ENDBRANCH   2  14
BRANCH   3  22
HETATM   22  C   UNK     0      71.553  76.485  61.273  0.00  0.00     0.104 C 
BRANCH  22  23
HETATM   23  C   UNK     0      72.420  77.662  61.732  0.00  0.00     0.019 C 
BRANCH  23  24
HETATM   24  C   UNK     0      72.492  78.826  60.738  0.00  0.00     0.103 C 
BRANCH  24  25
HETATM   25  C   UNK     0      73.108  78.409  59.413  0.00  0.00     0.223 C 
HETATM   26  O   UNK     0      72.502  78.588  58.362  0.00  0.00    -0.273 OA
HETATM   27  N   UNK     0      74.350  77.808  59.588  0.00  0.00    -0.312 N 
HETATM   28  H   UNK     0      74.721  77.731  60.532  0.00  0.00     0.170 HD
BRANCH  27  29
HETATM   29  C   UNK     0      75.196  77.269  58.592  0.00  0.00     0.129 A 
HETATM   30  N   UNK     0      76.135  78.069  58.040  0.00  0.00    -0.243 NA
HETATM   31  C   UNK     0      76.920  77.509  57.092  0.00  0.00     0.119 A 
HETATM   32  C   UNK     0      76.810  76.193  56.673  0.00  0.00     0.019 A 
HETATM   33  C   UNK     0      75.832  75.401  57.263  0.00  0.00     0.005 A 
HETATM   34  C   UNK     0      75.005  75.942  58.242  0.00  0.00     0.050 A 
ENDBRANCH  27  29
ENDBRANCH  24  25
ENDBRANCH  23  24
ENDBRANCH  22  23
ENDBRANCH   3  22
TORSDOF 9
ENDMDL
MODEL 3
REMARK VINA RESULT:      -7.7     22.887     26.507
REMARK  9 active torsions:
REMARK  status: ('A' for Active; 'I' for Inactive)
REMARK    1  A    between atoms: N_4  and  C_8 
REMARK       I    between atoms: N_4  and  C_13 
REMARK    2  A    between atoms: N_5  and  C_14 
REMARK    3  A    between atoms: N_5  and  C_15 
REMARK       I    between atoms: N_5  and  C_16 
REMARK       I    between atoms: N_6  and  C_27 
REMARK    4  A    between atoms: N_6  and  C_28 
REMARK    5  A    between atoms: C_13  and  C_14 
REMARK    6  A    between atoms: C_16  and  C_17 
REMARK    7  A    between atoms: C_17  and  C_19 
REMARK    8  A    between atoms: C_19  and  C_22 
REMARK    9  A    between atoms: C_22  and  C_27 
ROOT
HETATM    1  O   UNK     0      68.468  73.859  65.056  0.00  0.00    -0.273 OA
HETATM    2  N   UNK     0      70.281  75.112  64.264  0.00  0.00    -0.309 N 
HETATM    3  C   UNK     0      69.133  74.309  64.121  0.00  0.00     0.224 C 
ENDROOT
BRANCH   2   4
HETATM    4  C   UNK     0      70.784  75.483  65.593  0.00  0.00     0.235 C 
BRANCH   4   5
HETATM    5  C   UNK     0      72.182  74.932  65.776  0.00  0.00     0.236 C 
HETATM    6  O   UNK     0      73.164  75.641  65.975  0.00  0.00    -0.272 OA
HETATM    7  N   UNK     0      72.205  73.551  65.641  0.00  0.00    -0.355 N 
HETATM    8  H   UNK     0      71.327  73.055  65.513  0.00  0.00     0.162 HD
BRANCH   7   9
HETATM    9  C   UNK     0      73.414  72.768  65.720  0.00  0.00     0.084 C 
HETATM   10  C   UNK     0      73.120  71.286  65.914  0.00  0.00     0.025 C 
HETATM   11  C   UNK     0      72.849  70.749  64.510  0.00  0.00     0.002 C 
HETATM   12  C   UNK     0      73.496  71.737  63.540  0.00  0.00     0.002 C 
HETATM   13  C   UNK     0      74.185  72.790  64.406  0.00  0.00     0.025 C 
ENDBRANCH   7   9
ENDBRANCH   4   5
ENDBRANCH   2   4
BRANCH   2  14
HETATM   14  C   UNK     0      70.977  75.580  63.080  0.00  0.00     0.044 A 
HETATM   15  C   UNK     0      70.699  76.834  62.536  0.00  0.00    -0.035 A 
HETATM   16  C   UNK     0      71.379  77.267  61.399  0.00  0.00     0.009 A 
HETATM   17  C   UNK     0      69.678  77.735  63.153  0.00  0.00     0.050 C 
HETATM   18  C   UNK     0      72.338  76.446  60.804  0.00  0.00     0.007 A 
HETATM   19  C   UNK     0      72.616  75.191  61.348  0.00  0.00    -0.060 A 
HETATM   20  C   UNK     0      71.935  74.758  62.486  0.00  0.00     0.037 A 
HETATM   21  C   UNK     0      73.640  74.314  60.712  0.00  0.00     0.048 C 
ENDBRANCH   2  14
BRANCH   3  22
HETATM   22  C   UNK     0      68.727  73.992  62.684  0.00  0.00     0.104 C 
BRANCH  22  23
HETATM   23  C   UNK     0      68.711  72.491  62.377  0.00  0.00     0.019 C 
BRANCH  23  24
HETATM   24  C   UNK     0      67.572  72.041  61.458  0.00  0.00     0.103 C 
BRANCH  24  25
HETATM   25  C   UNK     0      66.206  72.379  62.033  0.00  0.00     0.223 C 
HETATM   26  O   UNK     0      65.793  71.805  63.035  0.00  0.00    -0.273 OA
HETATM   27  N   UNK     0      65.549  73.339  61.271  0.00  0.00    -0.312 N 
HETATM   28  H   UNK     0      66.027  73.722  60.459  0.00  0.00     0.170 HD
BRANCH  27  29
HETATM   29  C   UNK     0      64.256  73.871  61.480  0.00  0.00     0.129 A 
HETATM   30  N   UNK     0      63.191  73.185  61.007  0.00  0.00    -0.243 NA
HETATM   31  C   UNK     0      61.976  73.734  61.231  0.00  0.00     0.119 A 
HETATM   32  C   UNK     0      61.776  74.929  61.903  0.00  0.00     0.019 A 
HETATM   33  C   UNK     0      62.896  75.606  62.374  0.00  0.00     0.005 A 
HETATM   34  C   UNK     0      64.163  75.073  62.163  0.00  0.00     0.050 A 
ENDBRANCH  27  29
ENDBRANCH  24  25
ENDBRANCH  23  24
ENDBRANCH  22  23
ENDBRANCH   3  22
TORSDOF 9
ENDMDL
MODEL 4
REMARK VINA RESULT:      -7.7     23.043     26.176
REMARK  9 active torsions:
REMARK  status: ('A' for Active; 'I' for Inactive)
REMARK    1  A    between atoms: N_4  and  C_8 
REMARK       I    between atoms: N_4  and  C_13 
REMARK    2  A    between atoms: N_5  and  C_14 
REMARK    3  A    between atoms: N_5  and  C_15 
REMARK       I    between atoms: N_5  and  C_16 
REMARK       I    between atoms: N_6  and  C_27 
REMARK    4  A    between atoms: N_6  and  C_28 
REMARK    5  A    between atoms: C_13  and  C_14 
REMARK    6  A    between atoms: C_16  and  C_17 
REMARK    7  A    between atoms: C_17  and  C_19 
REMARK    8  A    between atoms: C_19  and  C_22 
REMARK    9  A    between atoms: C_22  and  C_27 
ROOT
HETATM    1  O   UNK     0      67.006  72.015  61.882  0.00  0.00    -0.273 OA
HETATM    2  N   UNK     0      68.761  73.273  62.788  0.00  0.00    -0.309 N 
HETATM    3  C   UNK     0      67.484  73.099  62.222  0.00  0.00     0.224 C 
ENDROOT
BRANCH   2   4
HETATM    4  C   UNK     0      69.650  72.126  63.019  0.00  0.00     0.235 C 
BRANCH   4   5
HETATM    5  C   UNK     0      71.080  72.526  62.721  0.00  0.00     0.236 C 
HETATM    6  O   UNK     0      71.561  72.510  61.592  0.00  0.00    -0.272 OA
HETATM    7  N   UNK     0      71.767  72.854  63.881  0.00  0.00    -0.355 N 
HETATM    8  H   UNK     0      71.263  72.870  64.764  0.00  0.00     0.162 HD
BRANCH   7   9
HETATM    9  C   UNK     0      73.161  73.225  63.896  0.00  0.00     0.084 C 
HETATM   10  C   UNK     0      73.386  74.613  63.310  0.00  0.00     0.025 C 
HETATM   11  C   UNK     0      73.104  75.579  64.460  0.00  0.00     0.002 C 
HETATM   12  C   UNK     0      73.257  74.769  65.747  0.00  0.00     0.002 C 
HETATM   13  C   UNK     0      73.688  73.369  65.318  0.00  0.00     0.025 C 
ENDBRANCH   7   9
ENDBRANCH   4   5
ENDBRANCH   2   4
BRANCH   2  14
HETATM   14  C   UNK     0      69.208  74.605  63.147  0.00  0.00     0.044 A 
HETATM   15  C   UNK     0      69.137  75.052  64.467  0.00  0.00    -0.035 A 
HETATM   16  C   UNK     0      69.572  76.335  64.794  0.00  0.00     0.009 A 
HETATM   17  C   UNK     0      68.601  74.174  65.552  0.00  0.00     0.050 C 
HETATM   18  C   UNK     0      70.078  77.175  63.800  0.00  0.00     0.007 A 
HETATM   19  C   UNK     0      70.148  76.729  62.480  0.00  0.00    -0.060 A 
HETATM   20  C   UNK     0      69.713  75.444  62.154  0.00  0.00     0.037 A 
HETATM   21  C   UNK     0      70.689  77.626  61.419  0.00  0.00     0.048 C 
ENDBRANCH   2  14
BRANCH   3  22
HETATM   22  C   UNK     0      66.671  74.377  62.030  0.00  0.00     0.104 C 
BRANCH  22  23
HETATM   23  C   UNK     0      65.229  74.257  62.535  0.00  0.00     0.019 C 
BRANCH  23  24
HETATM   24  C   UNK     0      64.256  75.275  61.931  0.00  0.00     0.103 C 
BRANCH  24  25
HETATM   25  C   UNK     0      63.079  75.557  62.851  0.00  0.00     0.223 C 
HETATM   26  O   UNK     0      63.242  75.630  64.064  0.00  0.00    -0.273 OA
HETATM   27  N   UNK     0      61.888  75.668  62.144  0.00  0.00    -0.312 N 
HETATM   28  H   UNK     0      61.916  75.581  61.131  0.00  0.00     0.170 HD
BRANCH  27  29
HETATM   29  C   UNK     0      60.592  75.893  62.665  0.00  0.00     0.129 A 
HETATM   30  N   UNK     0      59.601  75.042  62.319  0.00  0.00    -0.243 NA
HETATM   31  C   UNK     0      58.380  75.299  62.842  0.00  0.00     0.119 A 
HETATM   32  C   UNK     0      58.107  76.360  63.689  0.00  0.00     0.019 A 
HETATM   33  C   UNK     0      59.152  77.214  64.021  0.00  0.00     0.005 A 
HETATM   34  C   UNK     0      60.422  76.983  63.504  0.00  0.00     0.050 A 
ENDBRANCH  27  29
ENDBRANCH  24  25
ENDBRANCH  23  24
ENDBRANCH  22  23
ENDBRANCH   3  22
TORSDOF 9
ENDMDL
MODEL 5
REMARK VINA RESULT:      -7.6     23.146     26.451
REMARK  9 active torsions:
REMARK  status: ('A' for Active; 'I' for Inactive)
REMARK    1  A    between atoms: N_4  and  C_8 
REMARK       I    between atoms: N_4  and  C_13 
REMARK    2  A    between atoms: N_5  and  C_14 
REMARK    3  A    between atoms: N_5  and  C_15 
REMARK       I    between atoms: N_5  and  C_16 
REMARK       I    between atoms: N_6  and  C_27 
REMARK    4  A    between atoms: N_6  and  C_28 
REMARK    5  A    between atoms: C_13  and  C_14 
REMARK    6  A    between atoms: C_16  and  C_17 
REMARK    7  A    between atoms: C_17  and  C_19 
REMARK    8  A    between atoms: C_19  and  C_22 
REMARK    9  A    between atoms: C_22  and  C_27 
ROOT
HETATM    1  O   UNK     0      69.594  72.512  63.403  0.00  0.00    -0.273 OA
HETATM    2  N   UNK     0      70.164  74.276  64.834  0.00  0.00    -0.309 N 
HETATM    3  C   UNK     0      69.529  73.703  63.716  0.00  0.00     0.224 C 
ENDROOT
BRANCH   2   4
HETATM    4  C   UNK     0      70.982  73.460  65.741  0.00  0.00     0.235 C 
BRANCH   4   5
HETATM    5  C   UNK     0      72.404  73.402  65.225  0.00  0.00     0.236 C 
HETATM    6  O   UNK     0      73.310  74.100  65.671  0.00  0.00    -0.272 OA
HETATM    7  N   UNK     0      72.525  72.507  64.172  0.00  0.00    -0.355 N 
HETATM    8  H   UNK     0      71.718  71.950  63.904  0.00  0.00     0.162 HD
BRANCH   7   9
HETATM    9  C   UNK     0      73.760  72.288  63.458  0.00  0.00     0.084 C 
HETATM   10  C   UNK     0      73.601  71.250  62.354  0.00  0.00     0.025 C 
HETATM   11  C   UNK     0      73.036  72.022  61.163  0.00  0.00     0.002 C 
HETATM   12  C   UNK     0      73.380  73.492  61.402  0.00  0.00     0.002 C 
HETATM   13  C   UNK     0      74.195  73.531  62.692  0.00  0.00     0.025 C 
ENDBRANCH   7   9
ENDBRANCH   4   5
ENDBRANCH   2   4
BRANCH   2  14
HETATM   14  C   UNK     0      70.009  75.695  65.094  0.00  0.00     0.044 A 
HETATM   15  C   UNK     0      70.771  76.636  64.402  0.00  0.00    -0.035 A 
HETATM   16  C   UNK     0      70.608  77.996  64.666  0.00  0.00     0.009 A 
HETATM   17  C   UNK     0      71.770  76.216  63.373  0.00  0.00     0.050 C 
HETATM   18  C   UNK     0      69.681  78.415  65.621  0.00  0.00     0.007 A 
HETATM   19  C   UNK     0      68.918  77.473  66.313  0.00  0.00    -0.060 A 
HETATM   20  C   UNK     0      69.082  76.113  66.050  0.00  0.00     0.037 A 
HETATM   21  C   UNK     0      67.929  77.922  67.334  0.00  0.00     0.048 C 
ENDBRANCH   2  14
BRANCH   3  22
HETATM   22  C   UNK     0      68.719  74.668  62.854  0.00  0.00     0.104 C 
BRANCH  22  23
HETATM   23  C   UNK     0      67.215  74.373  62.868  0.00  0.00     0.019 C 
BRANCH  23  24
HETATM   24  C   UNK     0      66.684  73.834  64.200  0.00  0.00     0.103 C 
BRANCH  24  25
HETATM   25  C   UNK     0      65.166  73.846  64.258  0.00  0.00     0.223 C 
HETATM   26  O   UNK     0      64.563  73.031  64.949  0.00  0.00    -0.273 OA
HETATM   27  N   UNK     0      64.626  74.827  63.434  0.00  0.00    -0.312 N 
HETATM   28  H   UNK     0      65.262  75.428  62.917  0.00  0.00     0.170 HD
BRANCH  27  29
HETATM   29  C   UNK     0      63.258  75.109  63.209  0.00  0.00     0.129 A 
HETATM   30  N   UNK     0      62.680  76.107  63.914  0.00  0.00    -0.243 NA
HETATM   31  C   UNK     0      61.372  76.338  63.664  0.00  0.00     0.119 A 
HETATM   32  C   UNK     0      60.619  75.623  62.746  0.00  0.00     0.019 A 
HETATM   33  C   UNK     0      61.248  74.605  62.041  0.00  0.00     0.005 A 
HETATM   34  C   UNK     0      62.593  74.336  62.270  0.00  0.00     0.050 A 
ENDBRANCH  27  29
ENDBRANCH  24  25
ENDBRANCH  23  24
ENDBRANCH  22  23
ENDBRANCH   3  22
TORSDOF 9
ENDMDL
MODEL 6
REMARK VINA RESULT:      -7.6     25.927     29.839
REMARK  9 active torsions:
REMARK  status: ('A' for Active; 'I' for Inactive)
REMARK    1  A    between atoms: N_4  and  C_8 
REMARK       I    between atoms: N_4  and  C_13 
REMARK    2  A    between atoms: N_5  and  C_14 
REMARK    3  A    between atoms: N_5  and  C_15 
REMARK       I    between atoms: N_5  and  C_16 
REMARK       I    between atoms: N_6  and  C_27 
REMARK    4  A    between atoms: N_6  and  C_28 
REMARK    5  A    between atoms: C_13  and  C_14 
REMARK    6  A    between atoms: C_16  and  C_17 
REMARK    7  A    between atoms: C_17  and  C_19 
REMARK    8  A    between atoms: C_19  and  C_22 
REMARK    9  A    between atoms: C_22  and  C_27 
ROOT
HETATM    1  O   UNK     0      69.662  77.112  62.496  0.00  0.00    -0.273 OA
HETATM    2  N   UNK     0      70.679  75.070  63.026  0.00  0.00    -0.309 N 
HETATM    3  C   UNK     0      70.660  76.390  62.536  0.00  0.00     0.224 C 
ENDROOT
BRANCH   2   4
HETATM    4  C   UNK     0      69.459  74.436  63.543  0.00  0.00     0.235 C 
BRANCH   4   5
HETATM    5  C   UNK     0      69.419  74.570  65.051  0.00  0.00     0.236 C 
HETATM    6  O   UNK     0      69.621  73.631  65.815  0.00  0.00    -0.272 OA
HETATM    7  N   UNK     0      69.081  75.859  65.437  0.00  0.00    -0.355 N 
HETATM    8  H   UNK     0      68.970  76.574  64.722  0.00  0.00     0.162 HD
BRANCH   7   9
HETATM    9  C   UNK     0      68.923  76.257  66.815  0.00  0.00     0.084 C 
HETATM   10  C   UNK     0      70.234  76.740  67.421  0.00  0.00     0.025 C 
HETATM   11  C   UNK     0      70.350  78.204  66.999  0.00  0.00     0.002 C 
HETATM   12  C   UNK     0      68.933  78.664  66.655  0.00  0.00     0.002 C 
HETATM   13  C   UNK     0      68.019  77.476  66.948  0.00  0.00     0.025 C 
ENDBRANCH   7   9
ENDBRANCH   4   5
ENDBRANCH   2   4
BRANCH   2  14
HETATM   14  C   UNK     0      71.922  74.323  63.018  0.00  0.00     0.044 A 
HETATM   15  C   UNK     0      72.908  74.565  63.975  0.00  0.00    -0.035 A 
HETATM   16  C   UNK     0      74.097  73.837  63.952  0.00  0.00     0.009 A 
HETATM   17  C   UNK     0      72.716  75.599  65.037  0.00  0.00     0.050 C 
HETATM   18  C   UNK     0      74.301  72.865  62.972  0.00  0.00     0.007 A 
HETATM   19  C   UNK     0      73.315  72.622  62.015  0.00  0.00    -0.060 A 
HETATM   20  C   UNK     0      72.126  73.351  62.038  0.00  0.00     0.037 A 
HETATM   21  C   UNK     0      73.533  71.584  60.967  0.00  0.00     0.048 C 
ENDBRANCH   2  14
BRANCH   3  22
HETATM   22  C   UNK     0      71.996  76.919  62.020  0.00  0.00     0.104 C 
BRANCH  22  23
HETATM   23  C   UNK     0      72.211  76.660  60.525  0.00  0.00     0.019 C 
BRANCH  23  24
HETATM   24  C   UNK     0      73.542  75.986  60.181  0.00  0.00     0.103 C 
BRANCH  24  25
HETATM   25  C   UNK     0      74.387  76.831  59.242  0.00  0.00     0.223 C 
HETATM   26  O   UNK     0      74.747  77.956  59.572  0.00  0.00    -0.273 OA
HETATM   27  N   UNK     0      74.624  76.182  58.036  0.00  0.00    -0.312 N 
HETATM   28  H   UNK     0      74.253  75.243  57.911  0.00  0.00     0.170 HD
BRANCH  27  29
HETATM   29  C   UNK     0      75.338  76.671  56.917  0.00  0.00     0.129 A 
HETATM   30  N   UNK     0      74.778  77.650  56.172  0.00  0.00    -0.243 NA
HETATM   31  C   UNK     0      75.498  78.084  55.113  0.00  0.00     0.119 A 
HETATM   32  C   UNK     0      76.745  77.590  54.767  0.00  0.00     0.019 A 
HETATM   33  C   UNK     0      77.288  76.583  55.557  0.00  0.00     0.005 A 
HETATM   34  C   UNK     0      76.578  76.110  56.655  0.00  0.00     0.050 A 
ENDBRANCH  27  29
ENDBRANCH  24  25
ENDBRANCH  23  24
ENDBRANCH  22  23
ENDBRANCH   3  22
TORSDOF 9
ENDMDL
MODEL 7
REMARK VINA RESULT:      -7.5     23.797     28.097
REMARK  9 active torsions:
REMARK  status: ('A' for Active; 'I' for Inactive)
REMARK    1  A    between atoms: N_4  and  C_8 
REMARK       I    between atoms: N_4  and  C_13 
REMARK    2  A    between atoms: N_5  and  C_14 
REMARK    3  A    between atoms: N_5  and  C_15 
REMARK       I    between atoms: N_5  and  C_16 
REMARK       I    between atoms: N_6  and  C_27 
REMARK    4  A    between atoms: N_6  and  C_28 
REMARK    5  A    between atoms: C_13  and  C_14 
REMARK    6  A    between atoms: C_16  and  C_17 
REMARK    7  A    between atoms: C_17  and  C_19 
REMARK    8  A    between atoms: C_19  and  C_22 
REMARK    9  A    between atoms: C_22  and  C_27 
ROOT
HETATM    1  O   UNK     0      69.675  77.401  63.324  0.00  0.00    -0.273 OA
HETATM    2  N   UNK     0      71.826  76.498  63.118  0.00  0.00    -0.309 N 
HETATM    3  C   UNK     0      70.440  76.434  63.358  0.00  0.00     0.224 C 
ENDROOT
BRANCH   2   4
HETATM    4  C   UNK     0      72.483  77.773  62.800  0.00  0.00     0.235 C 
BRANCH   4   5
HETATM    5  C   UNK     0      72.436  78.007  61.305  0.00  0.00     0.236 C 
HETATM    6  O   UNK     0      71.423  78.368  60.712  0.00  0.00    -0.272 OA
HETATM    7  N   UNK     0      73.653  77.714  60.707  0.00  0.00    -0.355 N 
HETATM    8  H   UNK     0      74.441  77.456  61.296  0.00  0.00     0.162 HD
BRANCH   7   9
HETATM    9  C   UNK     0      73.878  77.801  59.285  0.00  0.00     0.084 C 
HETATM   10  C   UNK     0      75.362  77.858  58.946  0.00  0.00     0.025 C 
HETATM   11  C   UNK     0      75.824  76.402  58.942  0.00  0.00     0.002 C 
HETATM   12  C   UNK     0      74.568  75.554  58.739  0.00  0.00     0.002 C 
HETATM   13  C   UNK     0      73.415  76.541  58.564  0.00  0.00     0.025 C 
ENDBRANCH   7   9
ENDBRANCH   4   5
ENDBRANCH   2   4
BRANCH   2  14
HETATM   14  C   UNK     0      72.619  75.285  63.188  0.00  0.00     0.044 A 
HETATM   15  C   UNK     0      73.275  74.926  64.366  0.00  0.00    -0.035 A 
HETATM   16  C   UNK     0      74.032  73.757  64.415  0.00  0.00     0.009 A 
HETATM   17  C   UNK     0      73.184  75.778  65.591  0.00  0.00     0.050 C 
HETATM   18  C   UNK     0      74.133  72.943  63.285  0.00  0.00     0.007 A 
HETATM   19  C   UNK     0      73.477  73.302  62.107  0.00  0.00    -0.060 A 
HETATM   20  C   UNK     0      72.720  74.473  62.059  0.00  0.00     0.037 A 
HETATM   21  C   UNK     0      73.585  72.433  60.900  0.00  0.00     0.048 C 
ENDBRANCH   2  14
BRANCH   3  22
HETATM   22  C   UNK     0      69.892  75.048  63.687  0.00  0.00     0.104 C 
BRANCH  22  23
HETATM   23  C   UNK     0      68.800  74.585  62.717  0.00  0.00     0.019 C 
BRANCH  23  24
HETATM   24  C   UNK     0      68.216  73.204  63.029  0.00  0.00     0.103 C 
BRANCH  24  25
HETATM   25  C   UNK     0      66.706  73.171  62.866  0.00  0.00     0.223 C 
HETATM   26  O   UNK     0      66.116  72.101  62.750  0.00  0.00    -0.273 OA
HETATM   27  N   UNK     0      66.162  74.450  62.835  0.00  0.00    -0.312 N 
HETATM   28  H   UNK     0      66.788  75.244  62.943  0.00  0.00     0.170 HD
BRANCH  27  29
HETATM   29  C   UNK     0      64.805  74.807  62.664  0.00  0.00     0.129 A 
HETATM   30  N   UNK     0      64.096  75.188  63.750  0.00  0.00    -0.243 NA
HETATM   31  C   UNK     0      62.802  75.519  63.536  0.00  0.00     0.119 A 
HETATM   32  C   UNK     0      62.189  75.490  62.294  0.00  0.00     0.019 A 
HETATM   33  C   UNK     0      62.951  75.093  61.201  0.00  0.00     0.005 A 
HETATM   34  C   UNK     0      64.284  74.744  61.381  0.00  0.00     0.050 A 
ENDBRANCH  27  29
ENDBRANCH  24  25
ENDBRANCH  23  24
ENDBRANCH  22  23
ENDBRANCH   3  22
TORSDOF 9
ENDMDL
MODEL 8
REMARK VINA RESULT:      -7.5     22.534     26.532
REMARK  9 active torsions:
REMARK  status: ('A' for Active; 'I' for Inactive)
REMARK    1  A    between atoms: N_4  and  C_8 
REMARK       I    between atoms: N_4  and  C_13 
REMARK    2  A    between atoms: N_5  and  C_14 
REMARK    3  A    between atoms: N_5  and  C_15 
REMARK       I    between atoms: N_5  and  C_16 
REMARK       I    between atoms: N_6  and  C_27 
REMARK    4  A    between atoms: N_6  and  C_28 
REMARK    5  A    between atoms: C_13  and  C_14 
REMARK    6  A    between atoms: C_16  and  C_17 
REMARK    7  A    between atoms: C_17  and  C_19 
REMARK    8  A    between atoms: C_19  and  C_22 
REMARK    9  A    between atoms: C_22  and  C_27 
ROOT
HETATM    1  O   UNK     0      68.761  73.668  65.011  0.00  0.00    -0.273 OA
HETATM    2  N   UNK     0      70.999  73.803  64.336  0.00  0.00    -0.309 N 
HETATM    3  C   UNK     0      69.617  73.642  64.124  0.00  0.00     0.224 C 
ENDROOT
BRANCH   2   4
HETATM    4  C   UNK     0      71.538  74.021  65.685  0.00  0.00     0.235 C 
BRANCH   4   5
HETATM    5  C   UNK     0      71.660  75.507  65.947  0.00  0.00     0.236 C 
HETATM    6  O   UNK     0      72.681  76.149  65.718  0.00  0.00    -0.272 OA
HETATM    7  N   UNK     0      70.503  76.018  66.517  0.00  0.00    -0.355 N 
HETATM    8  H   UNK     0      69.699  75.406  66.631  0.00  0.00     0.162 HD
BRANCH   7   9
HETATM    9  C   UNK     0      70.359  77.397  66.915  0.00  0.00     0.084 C 
HETATM   10  C   UNK     0      69.210  78.083  66.187  0.00  0.00     0.025 C 
HETATM   11  C   UNK     0      67.960  77.711  66.981  0.00  0.00     0.002 C 
HETATM   12  C   UNK     0      68.441  77.309  68.375  0.00  0.00     0.002 C 
HETATM   13  C   UNK     0      69.953  77.520  68.378  0.00  0.00     0.025 C 
ENDBRANCH   7   9
ENDBRANCH   4   5
ENDBRANCH   2   4
BRANCH   2  14
HETATM   14  C   UNK     0      71.906  73.751  63.205  0.00  0.00     0.044 A 
HETATM   15  C   UNK     0      72.571  72.570  62.875  0.00  0.00    -0.035 A 
HETATM   16  C   UNK     0      73.439  72.539  61.784  0.00  0.00     0.009 A 
HETATM   17  C   UNK     0      72.372  71.322  63.673  0.00  0.00     0.050 C 
HETATM   18  C   UNK     0      73.642  73.691  61.021  0.00  0.00     0.007 A 
HETATM   19  C   UNK     0      72.976  74.872  61.351  0.00  0.00    -0.060 A 
HETATM   20  C   UNK     0      72.109  74.902  62.443  0.00  0.00     0.037 A 
HETATM   21  C   UNK     0      73.194  76.102  60.537  0.00  0.00     0.048 C 
ENDBRANCH   2  14
BRANCH   3  22
HETATM   22  C   UNK     0      69.196  73.413  62.674  0.00  0.00     0.104 C 
BRANCH  22  23
HETATM   23  C   UNK     0      67.678  73.460  62.471  0.00  0.00     0.019 C 
BRANCH  23  24
HETATM   24  C   UNK     0      67.134  74.831  62.055  0.00  0.00     0.103 C 
BRANCH  24  25
HETATM   25  C   UNK     0      65.719  74.743  61.509  0.00  0.00     0.223 C 
HETATM   26  O   UNK     0      65.512  74.824  60.302  0.00  0.00    -0.273 OA
HETATM   27  N   UNK     0      64.781  74.606  62.526  0.00  0.00    -0.312 N 
HETATM   28  H   UNK     0      65.113  74.555  63.485  0.00  0.00     0.170 HD
BRANCH  27  29
HETATM   29  C   UNK     0      63.375  74.528  62.399  0.00  0.00     0.129 A 
HETATM   30  N   UNK     0      62.827  73.358  62.003  0.00  0.00    -0.243 NA
HETATM   31  C   UNK     0      61.479  73.332  61.896  0.00  0.00     0.119 A 
HETATM   32  C   UNK     0      60.659  74.416  62.166  0.00  0.00     0.019 A 
HETATM   33  C   UNK     0      61.260  75.602  62.570  0.00  0.00     0.005 A 
HETATM   34  C   UNK     0      62.643  75.668  62.692  0.00  0.00     0.050 A 
ENDBRANCH  27  29
ENDBRANCH  24  25
ENDBRANCH  23  24
ENDBRANCH  22  23
ENDBRANCH   3  22
TORSDOF 9
ENDMDL
MODEL 9
REMARK VINA RESULT:      -7.5      3.613      6.489
REMARK  9 active torsions:
REMARK  status: ('A' for Active; 'I' for Inactive)
REMARK    1  A    between atoms: N_4  and  C_8 
REMARK       I    between atoms: N_4  and  C_13 
REMARK    2  A    between atoms: N_5  and  C_14 
REMARK    3  A    between atoms: N_5  and  C_15 
REMARK       I    between atoms: N_5  and  C_16 
REMARK       I    between atoms: N_6  and  C_27 
REMARK    4  A    between atoms: N_6  and  C_28 
REMARK    5  A    between atoms: C_13  and  C_14 
REMARK    6  A    between atoms: C_16  and  C_17 
REMARK    7  A    between atoms: C_17  and  C_19 
REMARK    8  A    between atoms: C_19  and  C_22 
REMARK    9  A    between atoms: C_22  and  C_27 
ROOT
HETATM    1  O   UNK     0      53.396  53.996  69.800  0.00  0.00    -0.273 OA
HETATM    2  N   UNK     0      53.723  56.315  69.749  0.00  0.00    -0.309 N 
HETATM    3  C   UNK     0      53.978  54.988  69.354  0.00  0.00     0.224 C 
ENDROOT
BRANCH   2   4
HETATM    4  C   UNK     0      52.704  56.621  70.762  0.00  0.00     0.235 C 
BRANCH   4   5
HETATM    5  C   UNK     0      51.326  56.517  70.142  0.00  0.00     0.236 C 
HETATM    6  O   UNK     0      50.828  57.407  69.458  0.00  0.00    -0.272 OA
HETATM    7  N   UNK     0      50.702  55.327  70.488  0.00  0.00    -0.355 N 
HETATM    8  H   UNK     0      51.220  54.640  71.030  0.00  0.00     0.162 HD
BRANCH   7   9
HETATM    9  C   UNK     0      49.363  54.987  70.075  0.00  0.00     0.084 C 
HETATM   10  C   UNK     0      49.318  54.506  68.630  0.00  0.00     0.025 C 
HETATM   11  C   UNK     0      49.687  53.026  68.693  0.00  0.00     0.002 C 
HETATM   12  C   UNK     0      49.410  52.576  70.128  0.00  0.00     0.002 C 
HETATM   13  C   UNK     0      48.824  53.789  70.846  0.00  0.00     0.025 C 
ENDBRANCH   7   9
ENDBRANCH   4   5
ENDBRANCH   2   4
BRANCH   2  14
HETATM   14  C   UNK     0      54.479  57.397  69.148  0.00  0.00     0.044 A 
HETATM   15  C   UNK     0      55.694  57.811  69.695  0.00  0.00    -0.035 A 
HETATM   16  C   UNK     0      56.406  58.853  69.103  0.00  0.00     0.009 A 
HETATM   17  C   UNK     0      56.254  57.156  70.916  0.00  0.00     0.050 C 
HETATM   18  C   UNK     0      55.905  59.481  67.962  0.00  0.00     0.007 A 
HETATM   19  C   UNK     0      54.691  59.066  67.414  0.00  0.00    -0.060 A 
HETATM   20  C   UNK     0      53.977  58.024  68.008  0.00  0.00     0.037 A 
HETATM   21  C   UNK     0      54.155  59.738  66.196  0.00  0.00     0.048 C 
ENDBRANCH   2  14
BRANCH   3  22
HETATM   22  C   UNK     0      55.069  54.813  68.301  0.00  0.00     0.104 C 
BRANCH  22  23
HETATM   23  C   UNK     0      54.676  53.848  67.178  0.00  0.00     0.019 C 
BRANCH  23  24
HETATM   24  C   UNK     0      55.330  52.466  67.269  0.00  0.00     0.103 C 
BRANCH  24  25
HETATM   25  C   UNK     0      54.578  51.422  66.460  0.00  0.00     0.223 C 
HETATM   26  O   UNK     0      53.444  51.084  66.783  0.00  0.00    -0.273 OA
HETATM   27  N   UNK     0      55.344  50.934  65.408  0.00  0.00    -0.312 N 
HETATM   28  H   UNK     0      56.276  51.317  65.271  0.00  0.00     0.170 HD
BRANCH  27  29
HETATM   29  C   UNK     0      54.989  49.936  64.471  0.00  0.00     0.129 A 
HETATM   30  N   UNK     0      53.981  50.192  63.608  0.00  0.00    -0.243 NA
HETATM   31  C   UNK     0      53.677  49.208  62.731  0.00  0.00     0.119 A 
HETATM   32  C   UNK     0      54.331  47.988  62.677  0.00  0.00     0.019 A 
HETATM   33  C   UNK     0      55.362  47.762  63.582  0.00  0.00     0.005 A 
HETATM   34  C   UNK     0      55.704  48.750  64.499  0.00  0.00     0.050 A 
ENDBRANCH  27  29
ENDBRANCH  24  25
ENDBRANCH  23  24
ENDBRANCH  22  23
ENDBRANCH   3  22
TORSDOF 9
ENDMDL
