MODEL 1
REMARK VINA RESULT:      -7.7      0.000      0.000
REMARK  4 active torsions:
REMARK  status: ('A' for Active; 'I' for Inactive)
REMARK    1  A    between atoms: O_1  and  C_9 
REMARK    2  A    between atoms: O_2  and  C_19 
REMARK    3  A    between atoms: C_7  and  C_13 
REMARK    4  A    between atoms: C_13  and  C_19 
ROOT
HETATM    1  N   UNK     0      54.652  57.001  70.162  0.00  0.00    -0.288 N 
HETATM    2  N   UNK     0      52.765  57.627  68.175  0.00  0.00    -0.249 NA
HETATM    3  C   UNK     0      53.466  56.307  70.043  0.00  0.00     0.067 A 
HETATM    4  C   UNK     0      54.648  55.457  71.762  0.00  0.00     0.005 A 
HETATM    5  C   UNK     0      54.952  58.057  69.279  0.00  0.00     0.070 A 
HETATM    6  C   UNK     0      55.377  56.488  71.208  0.00  0.00     0.154 A 
HETATM    7  C   UNK     0      53.443  55.342  71.029  0.00  0.00     0.044 A 
HETATM    8  C   UNK     0      52.521  56.659  69.009  0.00  0.00     0.058 A 
HETATM    9  C   UNK     0      53.982  58.343  68.294  0.00  0.00     0.084 A 
HETATM   10  C   UNK     0      56.140  58.783  69.368  0.00  0.00     0.032 A 
HETATM   11  C   UNK     0      51.234  55.891  68.894  0.00  0.00     0.073 C 
HETATM   12  C   UNK     0      54.239  59.384  67.396  0.00  0.00     0.034 A 
HETATM   13  C   UNK     0      56.371  59.816  68.459  0.00  0.00     0.002 A 
HETATM   14  C   UNK     0      55.425  60.115  67.477  0.00  0.00     0.002 A 
ENDROOT
BRANCH   4  15
HETATM   15  C   UNK     0      55.046  54.621  72.913  0.00  0.00     0.153 C 
BRANCH  15  16
HETATM   16  C   UNK     0      56.049  53.530  72.568  0.00  0.00     0.143 C 
HETATM   17  O   UNK     0      56.061  52.904  71.518  0.00  0.00    -0.650 OA
BRANCH  16  18
HETATM   18  O   UNK     0      56.945  53.317  73.567  0.00  0.00    -0.776 OA
HETATM   19  H   UNK     0      56.520  52.926  74.361  0.00  0.00     0.167 HD
ENDBRANCH  16  18
ENDBRANCH  15  16
ENDBRANCH   4  15
BRANCH   6  20
HETATM   20  O   UNK     0      56.567  56.942  71.579  0.00  0.00    -0.345 OA
HETATM   21  H   UNK     0      56.473  57.354  72.454  0.00  0.00     0.219 HD
ENDBRANCH   6  20
TORSDOF 4
ENDMDL
MODEL 2
REMARK VINA RESULT:      -7.6     17.711     20.598
REMARK  4 active torsions:
REMARK  status: ('A' for Active; 'I' for Inactive)
REMARK    1  A    between atoms: O_1  and  C_9 
REMARK    2  A    between atoms: O_2  and  C_19 
REMARK    3  A    between atoms: C_7  and  C_13 
REMARK    4  A    between atoms: C_13  and  C_19 
ROOT
HETATM    1  N   UNK     0      61.385  74.794  63.607  0.00  0.00    -0.288 N 
HETATM    2  N   UNK     0      59.018  73.659  64.613  0.00  0.00    -0.249 NA
HETATM    3  C   UNK     0      61.338  73.490  64.054  0.00  0.00     0.067 A 
HETATM    4  C   UNK     0      63.426  73.951  63.346  0.00  0.00     0.005 A 
HETATM    5  C   UNK     0      60.232  75.602  63.645  0.00  0.00     0.070 A 
HETATM    6  C   UNK     0      62.655  75.082  63.174  0.00  0.00     0.154 A 
HETATM    7  C   UNK     0      62.597  72.947  63.900  0.00  0.00     0.044 A 
HETATM    8  C   UNK     0      60.103  72.942  64.564  0.00  0.00     0.058 A 
HETATM    9  C   UNK     0      59.061  75.000  64.155  0.00  0.00     0.084 A 
HETATM   10  C   UNK     0      60.239  76.926  63.203  0.00  0.00     0.032 A 
HETATM   11  C   UNK     0      60.070  71.519  65.046  0.00  0.00     0.073 C 
HETATM   12  C   UNK     0      57.893  75.766  64.210  0.00  0.00     0.034 A 
HETATM   13  C   UNK     0      59.059  77.668  63.269  0.00  0.00     0.002 A 
HETATM   14  C   UNK     0      57.892  77.091  63.770  0.00  0.00     0.002 A 
ENDROOT
BRANCH   4  15
HETATM   15  C   UNK     0      64.858  73.809  63.014  0.00  0.00     0.153 C 
BRANCH  15  16
HETATM   16  C   UNK     0      65.119  73.270  61.616  0.00  0.00     0.143 C 
HETATM   17  O   UNK     0      65.043  73.932  60.590  0.00  0.00    -0.650 OA
BRANCH  16  18
HETATM   18  O   UNK     0      65.452  71.953  61.622  0.00  0.00    -0.776 OA
HETATM   19  H   UNK     0      65.898  71.693  62.458  0.00  0.00     0.167 HD
ENDBRANCH  16  18
ENDBRANCH  15  16
ENDBRANCH   4  15
BRANCH   6  20
HETATM   20  O   UNK     0      63.022  76.259  62.685  0.00  0.00    -0.345 OA
HETATM   21  H   UNK     0      63.973  76.220  62.488  0.00  0.00     0.219 HD
ENDBRANCH   6  20
TORSDOF 4
ENDMDL
MODEL 3
REMARK VINA RESULT:      -7.5     17.599     20.881
REMARK  4 active torsions:
REMARK  status: ('A' for Active; 'I' for Inactive)
REMARK    1  A    between atoms: O_1  and  C_9 
REMARK    2  A    between atoms: O_2  and  C_19 
REMARK    3  A    between atoms: C_7  and  C_13 
REMARK    4  A    between atoms: C_13  and  C_19 
ROOT
HETATM    1  N   UNK     0      61.526  74.220  63.340  0.00  0.00    -0.288 N 
HETATM    2  N   UNK     0      59.068  75.402  64.023  0.00  0.00    -0.249 NA
HETATM    3  C   UNK     0      61.255  75.544  63.064  0.00  0.00     0.067 A 
HETATM    4  C   UNK     0      63.330  75.048  62.340  0.00  0.00     0.005 A 
HETATM    5  C   UNK     0      60.563  73.415  63.980  0.00  0.00     0.070 A 
HETATM    6  C   UNK     0      62.788  73.911  62.902  0.00  0.00     0.154 A 
HETATM    7  C   UNK     0      62.365  76.078  62.441  0.00  0.00     0.044 A 
HETATM    8  C   UNK     0      59.981  76.116  63.430  0.00  0.00     0.058 A 
HETATM    9  C   UNK     0      59.341  74.041  64.309  0.00  0.00     0.084 A 
HETATM   10  C   UNK     0      60.797  72.071  64.276  0.00  0.00     0.032 A 
HETATM   11  C   UNK     0      59.704  77.560  63.122  0.00  0.00     0.073 C 
HETATM   12  C   UNK     0      58.357  73.279  64.946  0.00  0.00     0.034 A 
HETATM   13  C   UNK     0      59.798  71.334  64.912  0.00  0.00     0.002 A 
HETATM   14  C   UNK     0      58.584  71.935  65.245  0.00  0.00     0.002 A 
ENDROOT
BRANCH   4  15
HETATM   15  C   UNK     0      64.673  75.174  61.739  0.00  0.00     0.153 C 
BRANCH  15  16
HETATM   16  C   UNK     0      64.720  74.849  60.253  0.00  0.00     0.143 C 
HETATM   17  O   UNK     0      63.950  74.089  59.683  0.00  0.00    -0.650 OA
BRANCH  16  18
HETATM   18  O   UNK     0      65.725  75.502  59.612  0.00  0.00    -0.776 OA
HETATM   19  H   UNK     0      66.608  75.223  59.939  0.00  0.00     0.167 HD
ENDBRANCH  16  18
ENDBRANCH  15  16
ENDBRANCH   4  15
BRANCH   6  20
HETATM   20  O   UNK     0      63.342  72.712  63.022  0.00  0.00    -0.345 OA
HETATM   21  H   UNK     0      64.104  72.670  62.420  0.00  0.00     0.219 HD
ENDBRANCH   6  20
TORSDOF 4
ENDMDL
MODEL 4
REMARK VINA RESULT:      -7.1     19.100     21.001
REMARK  4 active torsions:
REMARK  status: ('A' for Active; 'I' for Inactive)
REMARK    1  A    between atoms: O_1  and  C_9 
REMARK    2  A    between atoms: O_2  and  C_19 
REMARK    3  A    between atoms: C_7  and  C_13 
REMARK    4  A    between atoms: C_13  and  C_19 
ROOT
HETATM    1  N   UNK     0      61.884  74.473  63.631  0.00  0.00    -0.288 N 
HETATM    2  N   UNK     0      63.867  73.245  65.200  0.00  0.00    -0.249 NA
HETATM    3  C   UNK     0      61.580  73.834  64.814  0.00  0.00     0.067 A 
HETATM    4  C   UNK     0      59.687  74.659  63.915  0.00  0.00     0.005 A 
HETATM    5  C   UNK     0      63.214  74.527  63.171  0.00  0.00     0.070 A 
HETATM    6  C   UNK     0      60.735  74.978  63.077  0.00  0.00     0.154 A 
HETATM    7  C   UNK     0      60.218  73.937  65.010  0.00  0.00     0.044 A 
HETATM    8  C   UNK     0      62.627  73.214  65.593  0.00  0.00     0.058 A 
HETATM    9  C   UNK     0      64.184  73.900  63.984  0.00  0.00     0.084 A 
HETATM   10  C   UNK     0      63.562  75.163  61.978  0.00  0.00     0.032 A 
HETATM   11  C   UNK     0      62.277  72.522  66.880  0.00  0.00     0.073 C 
HETATM   12  C   UNK     0      65.518  73.930  63.566  0.00  0.00     0.034 A 
HETATM   13  C   UNK     0      64.900  75.178  61.585  0.00  0.00     0.002 A 
HETATM   14  C   UNK     0      65.874  74.565  62.375  0.00  0.00     0.002 A 
ENDROOT
BRANCH   4  15
HETATM   15  C   UNK     0      58.265  75.003  63.711  0.00  0.00     0.153 C 
BRANCH  15  16
HETATM   16  C   UNK     0      58.025  76.468  63.375  0.00  0.00     0.143 C 
HETATM   17  O   UNK     0      58.142  77.391  64.168  0.00  0.00    -0.650 OA
BRANCH  16  18
HETATM   18  O   UNK     0      57.658  76.647  62.079  0.00  0.00    -0.776 OA
HETATM   19  H   UNK     0      57.026  75.958  61.779  0.00  0.00     0.167 HD
ENDBRANCH  16  18
ENDBRANCH  15  16
ENDBRANCH   4  15
BRANCH   6  20
HETATM   20  O   UNK     0      60.695  75.649  61.933  0.00  0.00    -0.345 OA
HETATM   21  H   UNK     0      60.144  75.148  61.308  0.00  0.00     0.219 HD
ENDBRANCH   6  20
TORSDOF 4
ENDMDL
MODEL 5
REMARK VINA RESULT:      -7.0     19.643     21.689
REMARK  4 active torsions:
REMARK  status: ('A' for Active; 'I' for Inactive)
REMARK    1  A    between atoms: O_1  and  C_9 
REMARK    2  A    between atoms: O_2  and  C_19 
REMARK    3  A    between atoms: C_7  and  C_13 
REMARK    4  A    between atoms: C_13  and  C_19 
ROOT
HETATM    1  N   UNK     0      65.010  74.136  63.405  0.00  0.00    -0.288 N 
HETATM    2  N   UNK     0      62.876  75.473  62.155  0.00  0.00    -0.249 NA
HETATM    3  C   UNK     0      65.174  74.812  62.214  0.00  0.00     0.067 A 
HETATM    4  C   UNK     0      67.144  73.906  62.827  0.00  0.00     0.005 A 
HETATM    5  C   UNK     0      63.750  74.097  64.034  0.00  0.00     0.070 A 
HETATM    6  C   UNK     0      66.206  73.581  63.784  0.00  0.00     0.154 A 
HETATM    7  C   UNK     0      66.495  74.682  61.836  0.00  0.00     0.044 A 
HETATM    8  C   UNK     0      64.054  75.487  61.603  0.00  0.00     0.058 A 
HETATM    9  C   UNK     0      62.702  74.779  63.379  0.00  0.00     0.084 A 
HETATM   10  C   UNK     0      63.542  73.423  65.238  0.00  0.00     0.032 A 
HETATM   11  C   UNK     0      64.252  76.219  60.305  0.00  0.00     0.073 C 
HETATM   12  C   UNK     0      61.434  74.767  63.968  0.00  0.00     0.034 A 
HETATM   13  C   UNK     0      62.267  73.427  65.805  0.00  0.00     0.002 A 
HETATM   14  C   UNK     0      61.218  74.096  65.173  0.00  0.00     0.002 A 
ENDROOT
BRANCH   4  15
HETATM   15  C   UNK     0      68.569  73.517  62.828  0.00  0.00     0.153 C 
BRANCH  15  16
HETATM   16  C   UNK     0      68.813  72.057  62.476  0.00  0.00     0.143 C 
HETATM   17  O   UNK     0      69.608  71.327  63.050  0.00  0.00    -0.650 OA
BRANCH  16  18
HETATM   18  O   UNK     0      68.042  71.639  61.437  0.00  0.00    -0.776 OA
HETATM   19  H   UNK     0      68.566  71.531  60.615  0.00  0.00     0.167 HD
ENDBRANCH  16  18
ENDBRANCH  15  16
ENDBRANCH   4  15
BRANCH   6  20
HETATM   20  O   UNK     0      66.375  72.867  64.888  0.00  0.00    -0.345 OA
HETATM   21  H   UNK     0      65.611  73.023  65.469  0.00  0.00     0.219 HD
ENDBRANCH   6  20
TORSDOF 4
ENDMDL
MODEL 6
REMARK VINA RESULT:      -7.0     17.701     20.703
REMARK  4 active torsions:
REMARK  status: ('A' for Active; 'I' for Inactive)
REMARK    1  A    between atoms: O_1  and  C_9 
REMARK    2  A    between atoms: O_2  and  C_19 
REMARK    3  A    between atoms: C_7  and  C_13 
REMARK    4  A    between atoms: C_13  and  C_19 
ROOT
HETATM    1  N   UNK     0      64.095  73.815  63.264  0.00  0.00    -0.288 N 
HETATM    2  N   UNK     0      65.315  74.030  60.741  0.00  0.00    -0.249 NA
HETATM    3  C   UNK     0      63.362  73.772  62.097  0.00  0.00     0.067 A 
HETATM    4  C   UNK     0      61.966  73.562  63.853  0.00  0.00     0.005 A 
HETATM    5  C   UNK     0      65.494  73.971  63.221  0.00  0.00     0.070 A 
HETATM    6  C   UNK     0      63.251  73.688  64.339  0.00  0.00     0.154 A 
HETATM    7  C   UNK     0      62.034  73.615  62.441  0.00  0.00     0.044 A 
HETATM    8  C   UNK     0      64.025  73.886  60.820  0.00  0.00     0.058 A 
HETATM    9  C   UNK     0      66.074  74.075  61.938  0.00  0.00     0.084 A 
HETATM   10  C   UNK     0      66.272  74.021  64.379  0.00  0.00     0.032 A 
HETATM   11  C   UNK     0      63.209  73.836  59.558  0.00  0.00     0.073 C 
HETATM   12  C   UNK     0      67.460  74.230  61.848  0.00  0.00     0.034 A 
HETATM   13  C   UNK     0      67.653  74.176  64.261  0.00  0.00     0.002 A 
HETATM   14  C   UNK     0      68.245  74.280  63.002  0.00  0.00     0.002 A 
ENDROOT
BRANCH   4  15
HETATM   15  C   UNK     0      60.738  73.402  64.657  0.00  0.00     0.153 C 
BRANCH  15  16
HETATM   16  C   UNK     0      60.542  72.002  65.218  0.00  0.00     0.143 C 
HETATM   17  O   UNK     0      59.835  71.142  64.711  0.00  0.00    -0.650 OA
BRANCH  16  18
HETATM   18  O   UNK     0      61.247  71.800  66.363  0.00  0.00    -0.776 OA
HETATM   19  H   UNK     0      60.717  72.018  67.160  0.00  0.00     0.167 HD
ENDBRANCH  16  18
ENDBRANCH  15  16
ENDBRANCH   4  15
BRANCH   6  20
HETATM   20  O   UNK     0      63.653  73.692  65.602  0.00  0.00    -0.345 OA
HETATM   21  H   UNK     0      63.271  72.915  66.043  0.00  0.00     0.219 HD
ENDBRANCH   6  20
TORSDOF 4
ENDMDL
MODEL 7
REMARK VINA RESULT:      -6.7      2.017      2.221
REMARK  4 active torsions:
REMARK  status: ('A' for Active; 'I' for Inactive)
REMARK    1  A    between atoms: O_1  and  C_9 
REMARK    2  A    between atoms: O_2  and  C_19 
REMARK    3  A    between atoms: C_7  and  C_13 
REMARK    4  A    between atoms: C_13  and  C_19 
ROOT
HETATM    1  N   UNK     0      53.999  56.894  70.618  0.00  0.00    -0.288 N 
HETATM    2  N   UNK     0      52.253  57.974  68.698  0.00  0.00    -0.249 NA
HETATM    3  C   UNK     0      52.642  56.655  70.656  0.00  0.00     0.067 A 
HETATM    4  C   UNK     0      53.626  55.593  72.381  0.00  0.00     0.005 A 
HETATM    5  C   UNK     0      54.554  57.696  69.601  0.00  0.00     0.070 A 
HETATM    6  C   UNK     0      54.606  56.249  71.666  0.00  0.00     0.154 A 
HETATM    7  C   UNK     0      52.388  55.848  71.746  0.00  0.00     0.044 A 
HETATM    8  C   UNK     0      51.777  57.228  69.651  0.00  0.00     0.058 A 
HETATM    9  C   UNK     0      53.648  58.222  68.654  0.00  0.00     0.084 A 
HETATM   10  C   UNK     0      55.922  57.962  69.528  0.00  0.00     0.032 A 
HETATM   11  C   UNK     0      50.299  56.957  69.708  0.00  0.00     0.073 C 
HETATM   12  C   UNK     0      54.155  59.024  67.627  0.00  0.00     0.034 A 
HETATM   13  C   UNK     0      56.402  58.765  68.494  0.00  0.00     0.002 A 
HETATM   14  C   UNK     0      55.522  59.294  67.547  0.00  0.00     0.002 A 
ENDROOT
BRANCH   4  15
HETATM   15  C   UNK     0      53.826  54.772  73.592  0.00  0.00     0.153 C 
BRANCH  15  16
HETATM   16  C   UNK     0      52.887  55.118  74.738  0.00  0.00     0.143 C 
HETATM   17  O   UNK     0      52.146  54.321  75.295  0.00  0.00    -0.650 OA
BRANCH  16  18
HETATM   18  O   UNK     0      52.957  56.430  75.086  0.00  0.00    -0.776 OA
HETATM   19  H   UNK     0      52.648  57.017  74.362  0.00  0.00     0.167 HD
ENDBRANCH  16  18
ENDBRANCH  15  16
ENDBRANCH   4  15
BRANCH   6  20
HETATM   20  O   UNK     0      55.910  56.285  71.904  0.00  0.00    -0.345 OA
HETATM   21  H   UNK     0      56.370  56.362  71.052  0.00  0.00     0.219 HD
ENDBRANCH   6  20
TORSDOF 4
ENDMDL
MODEL 8
REMARK VINA RESULT:      -6.7     21.443     24.435
REMARK  4 active torsions:
REMARK  status: ('A' for Active; 'I' for Inactive)
REMARK    1  A    between atoms: O_1  and  C_9 
REMARK    2  A    between atoms: O_2  and  C_19 
REMARK    3  A    between atoms: C_7  and  C_13 
REMARK    4  A    between atoms: C_13  and  C_19 
ROOT
HETATM    1  N   UNK     0      70.038  73.667  62.594  0.00  0.00    -0.288 N 
HETATM    2  N   UNK     0      71.690  75.876  62.053  0.00  0.00    -0.249 NA
HETATM    3  C   UNK     0      69.560  74.959  62.641  0.00  0.00     0.067 A 
HETATM    4  C   UNK     0      67.888  73.535  63.143  0.00  0.00     0.005 A 
HETATM    5  C   UNK     0      71.386  73.417  62.268  0.00  0.00     0.070 A 
HETATM    6  C   UNK     0      69.025  72.793  62.898  0.00  0.00     0.154 A 
HETATM    7  C   UNK     0      68.224  74.900  62.982  0.00  0.00     0.044 A 
HETATM    8  C   UNK     0      70.439  76.068  62.357  0.00  0.00     0.058 A 
HETATM    9  C   UNK     0      72.186  74.550  62.003  0.00  0.00     0.084 A 
HETATM   10  C   UNK     0      71.909  72.124  62.210  0.00  0.00     0.032 A 
HETATM   11  C   UNK     0      69.901  77.471  62.414  0.00  0.00     0.073 C 
HETATM   12  C   UNK     0      73.531  74.349  61.675  0.00  0.00     0.034 A 
HETATM   13  C   UNK     0      73.253  71.952  61.881  0.00  0.00     0.002 A 
HETATM   14  C   UNK     0      74.061  73.059  61.615  0.00  0.00     0.002 A 
ENDROOT
BRANCH   4  15
HETATM   15  C   UNK     0      66.559  73.006  63.508  0.00  0.00     0.153 C 
BRANCH  15  16
HETATM   16  C   UNK     0      65.720  72.562  62.319  0.00  0.00     0.143 C 
HETATM   17  O   UNK     0      64.542  72.846  62.154  0.00  0.00    -0.650 OA
BRANCH  16  18
HETATM   18  O   UNK     0      66.427  71.801  61.442  0.00  0.00    -0.776 OA
HETATM   19  H   UNK     0      66.060  71.855  60.534  0.00  0.00     0.167 HD
ENDBRANCH  16  18
ENDBRANCH  15  16
ENDBRANCH   4  15
BRANCH   6  20
HETATM   20  O   UNK     0      69.168  71.475  62.936  0.00  0.00    -0.345 OA
HETATM   21  H   UNK     0      69.214  71.150  62.021  0.00  0.00     0.219 HD
ENDBRANCH   6  20
TORSDOF 4
ENDMDL
MODEL 9
REMARK VINA RESULT:      -6.6     21.793     23.576
REMARK  4 active torsions:
REMARK  status: ('A' for Active; 'I' for Inactive)
REMARK    1  A    between atoms: O_1  and  C_9 
REMARK    2  A    between atoms: O_2  and  C_19 
REMARK    3  A    between atoms: C_7  and  C_13 
REMARK    4  A    between atoms: C_13  and  C_19 
ROOT
HETATM    1  N   UNK     0      57.377  79.517  72.722  0.00  0.00    -0.288 N 
HETATM    2  N   UNK     0      58.494  82.093  72.601  0.00  0.00    -0.249 NA
HETATM    3  C   UNK     0      57.093  80.476  73.671  0.00  0.00     0.067 A 
HETATM    4  C   UNK     0      55.979  78.586  74.178  0.00  0.00     0.005 A 
HETATM    5  C   UNK     0      58.247  79.807  71.653  0.00  0.00     0.070 A 
HETATM    6  C   UNK     0      56.701  78.362  73.025  0.00  0.00     0.154 A 
HETATM    7  C   UNK     0      56.225  79.918  74.587  0.00  0.00     0.044 A 
HETATM    8  C   UNK     0      57.687  81.789  73.575  0.00  0.00     0.058 A 
HETATM    9  C   UNK     0      58.789  81.111  71.623  0.00  0.00     0.084 A 
HETATM   10  C   UNK     0      58.560  78.864  70.673  0.00  0.00     0.032 A 
HETATM   11  C   UNK     0      57.366  82.823  74.618  0.00  0.00     0.073 C 
HETATM   12  C   UNK     0      59.658  81.443  70.579  0.00  0.00     0.034 A 
HETATM   13  C   UNK     0      59.429  79.221  69.642  0.00  0.00     0.002 A 
HETATM   14  C   UNK     0      59.976  80.504  69.595  0.00  0.00     0.002 A 
ENDROOT
BRANCH   4  15
HETATM   15  C   UNK     0      55.105  77.615  74.867  0.00  0.00     0.153 C 
BRANCH  15  16
HETATM   16  C   UNK     0      53.635  78.007  74.885  0.00  0.00     0.143 C 
HETATM   17  O   UNK     0      53.159  78.883  75.593  0.00  0.00    -0.650 OA
BRANCH  16  18
HETATM   18  O   UNK     0      52.892  77.270  74.019  0.00  0.00    -0.776 OA
HETATM   19  H   UNK     0      53.277  77.271  73.116  0.00  0.00     0.167 HD
ENDBRANCH  16  18
ENDBRANCH  15  16
ENDBRANCH   4  15
BRANCH   6  20
HETATM   20  O   UNK     0      56.767  77.253  72.301  0.00  0.00    -0.345 OA
HETATM   21  H   UNK     0      56.728  76.493  72.907  0.00  0.00     0.219 HD
ENDBRANCH   6  20
TORSDOF 4
ENDMDL
