MODEL 1
REMARK VINA RESULT:      -8.1      0.000      0.000
REMARK  4 active torsions:
REMARK  status: ('A' for Active; 'I' for Inactive)
REMARK    1  A    between atoms: P_3  and  N_5 
REMARK    2  A    between atoms: P_3  and  C_8 
REMARK    3  A    between atoms: P_3  and  C_9 
REMARK    4  A    between atoms: N_5  and  C_14 
ROOT
HETATM    1  P   UNK     0      63.115  74.324  60.969  0.00  0.00     0.253 P 
HETATM    2  O   UNK     0      63.641  75.698  60.561  0.00  0.00    -0.286 OA
ENDROOT
BRANCH   1   3
HETATM    3  N   UNK     0      63.906  73.470  62.143  0.00  0.00    -0.307 N 
HETATM    4  H   UNK     0      63.375  72.996  62.873  0.00  0.00     0.170 HD
BRANCH   3   5
HETATM    5  C   UNK     0      65.286  73.161  62.173  0.00  0.00     0.172 A 
HETATM    6  S   UNK     0      66.380  74.449  62.150  0.00  0.00    -0.063 SA
HETATM    7  C   UNK     0      67.639  73.287  62.209  0.00  0.00     0.072 A 
HETATM    8  C   UNK     0      67.097  72.018  62.240  0.00  0.00     0.126 A 
HETATM    9  N   UNK     0      65.717  71.951  62.220  0.00  0.00    -0.236 NA
ENDBRANCH   3   5
ENDBRANCH   1   3
BRANCH   1  10
HETATM   10  C   UNK     0      62.554  73.371  59.572  0.00  0.00     0.029 A 
HETATM   11  C   UNK     0      61.496  72.488  59.730  0.00  0.00     0.017 A 
HETATM   12  C   UNK     0      61.056  71.743  58.635  0.00  0.00     0.001 A 
HETATM   13  C   UNK     0      61.680  71.889  57.397  0.00  0.00     0.000 A 
HETATM   14  C   UNK     0      62.743  72.780  57.252  0.00  0.00     0.001 A 
HETATM   15  C   UNK     0      63.183  73.526  58.345  0.00  0.00     0.017 A 
ENDBRANCH   1  10
BRANCH   1  16
HETATM   16  C   UNK     0      61.708  74.475  62.001  0.00  0.00     0.162 A 
HETATM   17  S   UNK     0      61.353  73.336  63.225  0.00  0.00    -0.063 SA
HETATM   18  C   UNK     0      59.943  74.238  63.642  0.00  0.00     0.036 A 
HETATM   19  C   UNK     0      59.851  75.352  62.804  0.00  0.00     0.075 A 
HETATM   20  C   UNK     0      58.989  73.976  64.638  0.00  0.00     0.021 A 
HETATM   21  N   UNK     0      60.868  75.475  61.870  0.00  0.00    -0.235 NA
HETATM   22  C   UNK     0      58.762  76.237  62.971  0.00  0.00     0.033 A 
HETATM   23  C   UNK     0      57.808  75.983  63.961  0.00  0.00     0.002 A 
HETATM   24  C   UNK     0      57.922  74.867  64.783  0.00  0.00     0.002 A 
ENDBRANCH   1  16
TORSDOF 4
ENDMDL
MODEL 2
REMARK VINA RESULT:      -7.4     20.452     22.015
REMARK  4 active torsions:
REMARK  status: ('A' for Active; 'I' for Inactive)
REMARK    1  A    between atoms: P_3  and  N_5 
REMARK    2  A    between atoms: P_3  and  C_8 
REMARK    3  A    between atoms: P_3  and  C_9 
REMARK    4  A    between atoms: N_5  and  C_14 
ROOT
HETATM    1  P   UNK     0      54.001  57.012  70.165  0.00  0.00     0.253 P 
HETATM    2  O   UNK     0      52.557  57.246  70.601  0.00  0.00    -0.286 OA
ENDROOT
BRANCH   1   3
HETATM    3  N   UNK     0      55.108  56.485  71.275  0.00  0.00    -0.307 N 
HETATM    4  H   UNK     0      55.935  57.047  71.476  0.00  0.00     0.170 HD
BRANCH   3   5
HETATM    5  C   UNK     0      54.966  55.378  72.144  0.00  0.00     0.172 A 
HETATM    6  S   UNK     0      53.542  55.268  73.048  0.00  0.00    -0.063 SA
HETATM    7  C   UNK     0      54.163  53.816  73.715  0.00  0.00     0.072 A 
HETATM    8  C   UNK     0      55.407  53.555  73.179  0.00  0.00     0.126 A 
HETATM    9  N   UNK     0      55.872  54.475  72.258  0.00  0.00    -0.236 NA
ENDBRANCH   3   5
ENDBRANCH   1   3
BRANCH   1  10
HETATM   10  C   UNK     0      54.580  58.266  69.039  0.00  0.00     0.029 A 
HETATM   11  C   UNK     0      53.846  58.547  67.895  0.00  0.00     0.017 A 
HETATM   12  C   UNK     0      54.300  59.529  67.015  0.00  0.00     0.001 A 
HETATM   13  C   UNK     0      55.482  60.218  67.287  0.00  0.00     0.000 A 
HETATM   14  C   UNK     0      56.210  59.925  68.440  0.00  0.00     0.001 A 
HETATM   15  C   UNK     0      55.756  58.944  69.322  0.00  0.00     0.017 A 
ENDBRANCH   1  10
BRANCH   1  16
HETATM   16  C   UNK     0      54.151  55.510  69.276  0.00  0.00     0.162 A 
HETATM   17  S   UNK     0      55.538  55.137  68.350  0.00  0.00    -0.063 SA
HETATM   18  C   UNK     0      54.825  53.631  67.907  0.00  0.00     0.036 A 
HETATM   19  C   UNK     0      53.567  53.527  68.507  0.00  0.00     0.075 A 
HETATM   20  C   UNK     0      55.343  52.615  67.087  0.00  0.00     0.021 A 
HETATM   21  N   UNK     0      53.194  54.611  69.288  0.00  0.00    -0.235 NA
HETATM   22  C   UNK     0      52.801  52.363  68.276  0.00  0.00     0.033 A 
HETATM   23  C   UNK     0      53.309  51.348  67.462  0.00  0.00     0.002 A 
HETATM   24  C   UNK     0      54.564  51.473  66.876  0.00  0.00     0.002 A 
ENDBRANCH   1  16
TORSDOF 4
ENDMDL
MODEL 3
REMARK VINA RESULT:      -7.4     20.489     22.067
REMARK  4 active torsions:
REMARK  status: ('A' for Active; 'I' for Inactive)
REMARK    1  A    between atoms: P_3  and  N_5 
REMARK    2  A    between atoms: P_3  and  C_8 
REMARK    3  A    between atoms: P_3  and  C_9 
REMARK    4  A    between atoms: N_5  and  C_14 
ROOT
HETATM    1  P   UNK     0      54.063  56.807  70.247  0.00  0.00     0.253 P 
HETATM    2  O   UNK     0      52.676  57.068  70.828  0.00  0.00    -0.286 OA
ENDROOT
BRANCH   1   3
HETATM    3  N   UNK     0      55.254  56.212  71.228  0.00  0.00    -0.307 N 
HETATM    4  H   UNK     0      56.151  56.694  71.290  0.00  0.00     0.170 HD
BRANCH   3   5
HETATM    5  C   UNK     0      55.125  55.159  72.164  0.00  0.00     0.172 A 
HETATM    6  S   UNK     0      53.735  55.129  73.124  0.00  0.00    -0.063 SA
HETATM    7  C   UNK     0      54.355  53.705  73.850  0.00  0.00     0.072 A 
HETATM    8  C   UNK     0      55.573  53.389  73.284  0.00  0.00     0.126 A 
HETATM    9  N   UNK     0      56.019  54.245  72.295  0.00  0.00    -0.236 NA
ENDBRANCH   3   5
ENDBRANCH   1   3
BRANCH   1  10
HETATM   10  C   UNK     0      54.571  58.079  69.107  0.00  0.00     0.029 A 
HETATM   11  C   UNK     0      53.782  58.358  68.000  0.00  0.00     0.017 A 
HETATM   12  C   UNK     0      54.180  59.354  67.109  0.00  0.00     0.001 A 
HETATM   13  C   UNK     0      55.363  60.059  67.334  0.00  0.00     0.000 A 
HETATM   14  C   UNK     0      56.147  59.768  68.450  0.00  0.00     0.001 A 
HETATM   15  C   UNK     0      55.749  58.773  69.342  0.00  0.00     0.017 A 
ENDBRANCH   1  10
BRANCH   1  16
HETATM   16  C   UNK     0      54.078  55.331  69.303  0.00  0.00     0.162 A 
HETATM   17  S   UNK     0      52.822  54.176  69.403  0.00  0.00    -0.063 SA
HETATM   18  C   UNK     0      53.643  53.198  68.244  0.00  0.00     0.036 A 
HETATM   19  C   UNK     0      54.827  53.836  67.865  0.00  0.00     0.075 A 
HETATM   20  C   UNK     0      53.266  51.955  67.710  0.00  0.00     0.021 A 
HETATM   21  N   UNK     0      55.063  55.057  68.480  0.00  0.00    -0.235 NA
HETATM   22  C   UNK     0      55.663  53.205  66.916  0.00  0.00     0.033 A 
HETATM   23  C   UNK     0      55.293  51.969  66.380  0.00  0.00     0.002 A 
HETATM   24  C   UNK     0      54.109  51.353  66.772  0.00  0.00     0.002 A 
ENDBRANCH   1  16
TORSDOF 4
ENDMDL
MODEL 4
REMARK VINA RESULT:      -7.4      1.983      5.452
REMARK  4 active torsions:
REMARK  status: ('A' for Active; 'I' for Inactive)
REMARK    1  A    between atoms: P_3  and  N_5 
REMARK    2  A    between atoms: P_3  and  C_8 
REMARK    3  A    between atoms: P_3  and  C_9 
REMARK    4  A    between atoms: N_5  and  C_14 
ROOT
HETATM    1  P   UNK     0      61.741  74.148  62.895  0.00  0.00     0.253 P 
HETATM    2  O   UNK     0      61.412  72.962  63.798  0.00  0.00    -0.286 OA
ENDROOT
BRANCH   1   3
HETATM    3  N   UNK     0      63.281  74.751  62.877  0.00  0.00    -0.307 N 
HETATM    4  H   UNK     0      63.440  75.732  62.650  0.00  0.00     0.170 HD
BRANCH   3   5
HETATM    5  C   UNK     0      64.449  74.087  63.319  0.00  0.00     0.172 A 
HETATM    6  S   UNK     0      65.887  74.392  62.485  0.00  0.00    -0.063 SA
HETATM    7  C   UNK     0      66.660  73.312  63.569  0.00  0.00     0.072 A 
HETATM    8  C   UNK     0      65.737  72.820  64.469  0.00  0.00     0.126 A 
HETATM    9  N   UNK     0      64.443  73.279  64.318  0.00  0.00    -0.236 NA
ENDBRANCH   3   5
ENDBRANCH   1   3
BRANCH   1  10
HETATM   10  C   UNK     0      60.439  75.364  62.872  0.00  0.00     0.029 A 
HETATM   11  C   UNK     0      60.722  76.673  63.233  0.00  0.00     0.017 A 
HETATM   12  C   UNK     0      59.702  77.625  63.215  0.00  0.00     0.001 A 
HETATM   13  C   UNK     0      58.412  77.256  62.836  0.00  0.00     0.000 A 
HETATM   14  C   UNK     0      58.140  75.936  62.476  0.00  0.00     0.001 A 
HETATM   15  C   UNK     0      59.159  74.984  62.494  0.00  0.00     0.017 A 
ENDBRANCH   1  10
BRANCH   1  16
HETATM   16  C   UNK     0      61.903  73.637  61.227  0.00  0.00     0.162 A 
HETATM   17  S   UNK     0      62.929  74.446  60.125  0.00  0.00    -0.063 SA
HETATM   18  C   UNK     0      62.461  73.337  58.890  0.00  0.00     0.036 A 
HETATM   19  C   UNK     0      61.546  72.424  59.420  0.00  0.00     0.075 A 
HETATM   20  C   UNK     0      62.874  73.281  57.549  0.00  0.00     0.021 A 
HETATM   21  N   UNK     0      61.236  72.607  60.759  0.00  0.00    -0.235 NA
HETATM   22  C   UNK     0      61.027  71.417  58.576  0.00  0.00     0.033 A 
HETATM   23  C   UNK     0      61.433  71.355  57.240  0.00  0.00     0.002 A 
HETATM   24  C   UNK     0      62.345  72.275  56.735  0.00  0.00     0.002 A 
ENDBRANCH   1  16
TORSDOF 4
ENDMDL
MODEL 5
REMARK VINA RESULT:      -7.4     20.042     21.795
REMARK  4 active torsions:
REMARK  status: ('A' for Active; 'I' for Inactive)
REMARK    1  A    between atoms: P_3  and  N_5 
REMARK    2  A    between atoms: P_3  and  C_8 
REMARK    3  A    between atoms: P_3  and  C_9 
REMARK    4  A    between atoms: N_5  and  C_14 
ROOT
HETATM    1  P   UNK     0      53.689  55.341  70.064  0.00  0.00     0.253 P 
HETATM    2  O   UNK     0      53.123  54.365  69.036  0.00  0.00    -0.286 OA
ENDROOT
BRANCH   1   3
HETATM    3  N   UNK     0      55.207  55.090  70.671  0.00  0.00    -0.307 N 
HETATM    4  H   UNK     0      55.906  55.830  70.618  0.00  0.00     0.170 HD
BRANCH   3   5
HETATM    5  C   UNK     0      55.632  53.981  71.439  0.00  0.00     0.172 A 
HETATM    6  S   UNK     0      55.572  52.455  70.715  0.00  0.00    -0.063 SA
HETATM    7  C   UNK     0      56.192  51.815  72.180  0.00  0.00     0.072 A 
HETATM    8  C   UNK     0      56.386  52.837  73.086  0.00  0.00     0.126 A 
HETATM    9  N   UNK     0      56.056  54.104  72.646  0.00  0.00    -0.236 NA
ENDBRANCH   3   5
ENDBRANCH   1   3
BRANCH   1  10
HETATM   10  C   UNK     0      52.465  55.863  71.249  0.00  0.00     0.029 A 
HETATM   11  C   UNK     0      51.284  56.437  70.802  0.00  0.00     0.017 A 
HETATM   12  C   UNK     0      50.326  56.845  71.730  0.00  0.00     0.001 A 
HETATM   13  C   UNK     0      50.560  56.674  73.095  0.00  0.00     0.000 A 
HETATM   14  C   UNK     0      51.752  56.096  73.531  0.00  0.00     0.001 A 
HETATM   15  C   UNK     0      52.710  55.687  72.603  0.00  0.00     0.017 A 
ENDBRANCH   1  10
BRANCH   1  16
HETATM   16  C   UNK     0      54.223  56.821  69.294  0.00  0.00     0.162 A 
HETATM   17  S   UNK     0      55.466  57.791  69.953  0.00  0.00    -0.063 SA
HETATM   18  C   UNK     0      55.291  58.892  68.637  0.00  0.00     0.036 A 
HETATM   19  C   UNK     0      54.285  58.429  67.785  0.00  0.00     0.075 A 
HETATM   20  C   UNK     0      55.994  60.080  68.378  0.00  0.00     0.021 A 
HETATM   21  N   UNK     0      53.682  57.242  68.173  0.00  0.00    -0.235 NA
HETATM   22  C   UNK     0      53.973  59.183  66.632  0.00  0.00     0.033 A 
HETATM   23  C   UNK     0      54.668  60.366  66.368  0.00  0.00     0.002 A 
HETATM   24  C   UNK     0      55.666  60.807  67.231  0.00  0.00     0.002 A 
ENDBRANCH   1  16
TORSDOF 4
ENDMDL
MODEL 6
REMARK VINA RESULT:      -7.4     20.424     22.078
REMARK  4 active torsions:
REMARK  status: ('A' for Active; 'I' for Inactive)
REMARK    1  A    between atoms: P_3  and  N_5 
REMARK    2  A    between atoms: P_3  and  C_8 
REMARK    3  A    between atoms: P_3  and  C_9 
REMARK    4  A    between atoms: N_5  and  C_14 
ROOT
HETATM    1  P   UNK     0      54.639  55.588  71.366  0.00  0.00     0.253 P 
HETATM    2  O   UNK     0      55.924  55.227  72.107  0.00  0.00    -0.286 OA
ENDROOT
BRANCH   1   3
HETATM    3  N   UNK     0      53.461  56.439  72.154  0.00  0.00    -0.307 N 
HETATM    4  H   UNK     0      53.134  57.327  71.774  0.00  0.00     0.170 HD
BRANCH   3   5
HETATM    5  C   UNK     0      52.695  55.993  73.256  0.00  0.00     0.172 A 
HETATM    6  S   UNK     0      53.245  54.632  74.094  0.00  0.00    -0.063 SA
HETATM    7  C   UNK     0      51.884  54.805  75.123  0.00  0.00     0.072 A 
HETATM    8  C   UNK     0      51.137  55.894  74.723  0.00  0.00     0.126 A 
HETATM    9  N   UNK     0      51.618  56.586  73.628  0.00  0.00    -0.236 NA
ENDBRANCH   3   5
ENDBRANCH   1   3
BRANCH   1  10
HETATM   10  C   UNK     0      54.063  54.262  70.325  0.00  0.00     0.029 A 
HETATM   11  C   UNK     0      52.704  53.988  70.258  0.00  0.00     0.017 A 
HETATM   12  C   UNK     0      52.253  52.950  69.443  0.00  0.00     0.001 A 
HETATM   13  C   UNK     0      53.166  52.197  68.704  0.00  0.00     0.000 A 
HETATM   14  C   UNK     0      54.529  52.482  68.780  0.00  0.00     0.001 A 
HETATM   15  C   UNK     0      54.981  53.521  69.595  0.00  0.00     0.017 A 
ENDBRANCH   1  10
BRANCH   1  16
HETATM   16  C   UNK     0      54.903  56.930  70.272  0.00  0.00     0.162 A 
HETATM   17  S   UNK     0      56.137  58.084  70.531  0.00  0.00    -0.063 SA
HETATM   18  C   UNK     0      55.655  58.908  69.095  0.00  0.00     0.036 A 
HETATM   19  C   UNK     0      54.576  58.231  68.521  0.00  0.00     0.075 A 
HETATM   20  C   UNK     0      56.192  60.070  68.519  0.00  0.00     0.021 A 
HETATM   21  N   UNK     0      54.156  57.100  69.206  0.00  0.00    -0.235 NA
HETATM   22  C   UNK     0      54.016  58.736  67.327  0.00  0.00     0.033 A 
HETATM   23  C   UNK     0      54.547  59.892  66.747  0.00  0.00     0.002 A 
HETATM   24  C   UNK     0      55.621  60.550  67.337  0.00  0.00     0.002 A 
ENDBRANCH   1  16
TORSDOF 4
ENDMDL
MODEL 7
REMARK VINA RESULT:      -7.3      1.370      1.940
REMARK  4 active torsions:
REMARK  status: ('A' for Active; 'I' for Inactive)
REMARK    1  A    between atoms: P_3  and  N_5 
REMARK    2  A    between atoms: P_3  and  C_8 
REMARK    3  A    between atoms: P_3  and  C_9 
REMARK    4  A    between atoms: N_5  and  C_14 
ROOT
HETATM    1  P   UNK     0      63.226  74.077  60.838  0.00  0.00     0.253 P 
HETATM    2  O   UNK     0      63.488  75.560  60.588  0.00  0.00    -0.286 OA
ENDROOT
BRANCH   1   3
HETATM    3  N   UNK     0      64.273  73.218  61.788  0.00  0.00    -0.307 N 
HETATM    4  H   UNK     0      64.124  72.220  61.935  0.00  0.00     0.170 HD
BRANCH   3   5
HETATM    5  C   UNK     0      65.502  73.679  62.315  0.00  0.00     0.172 A 
HETATM    6  S   UNK     0      65.553  74.069  63.959  0.00  0.00    -0.063 SA
HETATM    7  C   UNK     0      67.205  74.472  63.737  0.00  0.00     0.072 A 
HETATM    8  C   UNK     0      67.558  74.268  62.420  0.00  0.00     0.126 A 
HETATM    9  N   UNK     0      66.556  73.802  61.591  0.00  0.00    -0.236 NA
ENDBRANCH   3   5
ENDBRANCH   1   3
BRANCH   1  10
HETATM   10  C   UNK     0      62.646  73.236  59.379  0.00  0.00     0.029 A 
HETATM   11  C   UNK     0      61.547  72.395  59.467  0.00  0.00     0.017 A 
HETATM   12  C   UNK     0      61.093  71.737  58.324  0.00  0.00     0.001 A 
HETATM   13  C   UNK     0      61.744  71.928  57.105  0.00  0.00     0.000 A 
HETATM   14  C   UNK     0      62.849  72.776  57.030  0.00  0.00     0.001 A 
HETATM   15  C   UNK     0      63.303  73.435  58.172  0.00  0.00     0.017 A 
ENDBRANCH   1  10
BRANCH   1  16
HETATM   16  C   UNK     0      61.949  73.858  62.017  0.00  0.00     0.162 A 
HETATM   17  S   UNK     0      60.811  75.085  62.363  0.00  0.00    -0.063 SA
HETATM   18  C   UNK     0      60.054  74.046  63.512  0.00  0.00     0.036 A 
HETATM   19  C   UNK     0      60.736  72.827  63.543  0.00  0.00     0.075 A 
HETATM   20  C   UNK     0      58.937  74.293  64.327  0.00  0.00     0.021 A 
HETATM   21  N   UNK     0      61.819  72.733  62.682  0.00  0.00    -0.235 NA
HETATM   22  C   UNK     0      60.282  71.819  64.423  0.00  0.00     0.033 A 
HETATM   23  C   UNK     0      59.171  72.057  65.236  0.00  0.00     0.002 A 
HETATM   24  C   UNK     0      58.508  73.279  65.188  0.00  0.00     0.002 A 
ENDBRANCH   1  16
TORSDOF 4
ENDMDL
MODEL 8
REMARK VINA RESULT:      -7.2     20.590     22.447
REMARK  4 active torsions:
REMARK  status: ('A' for Active; 'I' for Inactive)
REMARK    1  A    between atoms: P_3  and  N_5 
REMARK    2  A    between atoms: P_3  and  C_8 
REMARK    3  A    between atoms: P_3  and  C_9 
REMARK    4  A    between atoms: N_5  and  C_14 
ROOT
HETATM    1  P   UNK     0      53.307  55.742  71.591  0.00  0.00     0.253 P 
HETATM    2  O   UNK     0      52.971  56.362  72.944  0.00  0.00    -0.286 OA
ENDROOT
BRANCH   1   3
HETATM    3  N   UNK     0      52.094  55.473  70.499  0.00  0.00    -0.307 N 
HETATM    4  H   UNK     0      52.315  55.112  69.571  0.00  0.00     0.170 HD
BRANCH   3   5
HETATM    5  C   UNK     0      50.704  55.526  70.756  0.00  0.00     0.172 A 
HETATM    6  S   UNK     0      49.789  56.655  69.893  0.00  0.00    -0.063 SA
HETATM    7  C   UNK     0      48.414  56.077  70.737  0.00  0.00     0.072 A 
HETATM    8  C   UNK     0      48.790  55.071  71.603  0.00  0.00     0.126 A 
HETATM    9  N   UNK     0      50.135  54.752  71.609  0.00  0.00    -0.236 NA
ENDBRANCH   3   5
ENDBRANCH   1   3
BRANCH   1  10
HETATM   10  C   UNK     0      54.525  54.448  71.721  0.00  0.00     0.029 A 
HETATM   11  C   UNK     0      54.823  53.677  70.608  0.00  0.00     0.017 A 
HETATM   12  C   UNK     0      55.777  52.665  70.710  0.00  0.00     0.001 A 
HETATM   13  C   UNK     0      56.421  52.434  71.926  0.00  0.00     0.000 A 
HETATM   14  C   UNK     0      56.112  53.216  73.039  0.00  0.00     0.001 A 
HETATM   15  C   UNK     0      55.158  54.230  72.936  0.00  0.00     0.017 A 
ENDBRANCH   1  10
BRANCH   1  16
HETATM   16  C   UNK     0      54.029  56.928  70.522  0.00  0.00     0.162 A 
HETATM   17  S   UNK     0      55.531  57.668  70.868  0.00  0.00    -0.063 SA
HETATM   18  C   UNK     0      55.410  58.574  69.406  0.00  0.00     0.036 A 
HETATM   19  C   UNK     0      54.218  58.238  68.758  0.00  0.00     0.075 A 
HETATM   20  C   UNK     0      56.306  59.514  68.872  0.00  0.00     0.021 A 
HETATM   21  N   UNK     0      53.438  57.294  69.409  0.00  0.00    -0.235 NA
HETATM   22  C   UNK     0      53.914  58.867  67.530  0.00  0.00     0.033 A 
HETATM   23  C   UNK     0      54.801  59.803  66.992  0.00  0.00     0.002 A 
HETATM   24  C   UNK     0      55.981  60.122  67.656  0.00  0.00     0.002 A 
ENDBRANCH   1  16
TORSDOF 4
ENDMDL
MODEL 9
REMARK VINA RESULT:      -7.2     20.410     21.947
REMARK  4 active torsions:
REMARK  status: ('A' for Active; 'I' for Inactive)
REMARK    1  A    between atoms: P_3  and  N_5 
REMARK    2  A    between atoms: P_3  and  C_8 
REMARK    3  A    between atoms: P_3  and  C_9 
REMARK    4  A    between atoms: N_5  and  C_14 
ROOT
HETATM    1  P   UNK     0      54.939  55.175  70.866  0.00  0.00     0.253 P 
HETATM    2  O   UNK     0      55.985  55.123  71.976  0.00  0.00    -0.286 OA
ENDROOT
BRANCH   1   3
HETATM    3  N   UNK     0      53.385  55.601  71.237  0.00  0.00    -0.307 N 
HETATM    4  H   UNK     0      52.747  55.894  70.497  0.00  0.00     0.170 HD
BRANCH   3   5
HETATM    5  C   UNK     0      52.746  55.447  72.490  0.00  0.00     0.172 A 
HETATM    6  S   UNK     0      52.729  53.904  73.178  0.00  0.00    -0.063 SA
HETATM    7  C   UNK     0      51.870  54.580  74.498  0.00  0.00     0.072 A 
HETATM    8  C   UNK     0      51.678  55.930  74.283  0.00  0.00     0.126 A 
HETATM    9  N   UNK     0      52.195  56.432  73.104  0.00  0.00    -0.236 NA
ENDBRANCH   3   5
ENDBRANCH   1   3
BRANCH   1  10
HETATM   10  C   UNK     0      55.112  53.831  69.709  0.00  0.00     0.029 A 
HETATM   11  C   UNK     0      55.020  54.087  68.348  0.00  0.00     0.017 A 
HETATM   12  C   UNK     0      55.155  53.034  67.443  0.00  0.00     0.001 A 
HETATM   13  C   UNK     0      55.381  51.739  67.908  0.00  0.00     0.000 A 
HETATM   14  C   UNK     0      55.471  51.496  69.278  0.00  0.00     0.001 A 
HETATM   15  C   UNK     0      55.336  52.548  70.185  0.00  0.00     0.017 A 
ENDBRANCH   1  10
BRANCH   1  16
HETATM   16  C   UNK     0      55.124  56.624  69.899  0.00  0.00     0.162 A 
HETATM   17  S   UNK     0      56.511  57.617  70.006  0.00  0.00    -0.063 SA
HETATM   18  C   UNK     0      55.839  58.666  68.814  0.00  0.00     0.036 A 
HETATM   19  C   UNK     0      54.593  58.172  68.421  0.00  0.00     0.075 A 
HETATM   20  C   UNK     0      56.377  59.842  68.267  0.00  0.00     0.021 A 
HETATM   21  N   UNK     0      54.196  57.001  69.050  0.00  0.00    -0.235 NA
HETATM   22  C   UNK     0      53.860  58.882  67.444  0.00  0.00     0.033 A 
HETATM   23  C   UNK     0      54.389  60.053  66.895  0.00  0.00     0.002 A 
HETATM   24  C   UNK     0      55.632  60.526  67.302  0.00  0.00     0.002 A 
ENDBRANCH   1  16
TORSDOF 4
ENDMDL
