MODEL 1
REMARK VINA RESULT:      -6.4      0.000      0.000
REMARK  7 active torsions:
REMARK  status: ('A' for Active; 'I' for Inactive)
REMARK    1  A    between atoms: S_2  and  N_10 
REMARK    2  A    between atoms: S_2  and  C_22 
REMARK    3  A    between atoms: O_4  and  C_17 
REMARK    4  A    between atoms: O_5  and  C_21 
REMARK    5  A    between atoms: O_5  and  C_24 
REMARK    6  A    between atoms: N_10  and  C_15 
REMARK    7  A    between atoms: C_13  and  C_21 
ROOT
HETATM    1  N   UNK     0      73.132  74.342  61.103  0.00  0.00    -0.353 N 
HETATM    2  C   UNK     0      71.577  74.796  62.635  0.00  0.00     0.039 A 
HETATM    3  C   UNK     0      72.399  75.365  61.661  0.00  0.00     0.048 A 
HETATM    4  C   UNK     0      71.843  73.398  62.644  0.00  0.00     0.076 A 
HETATM    5  C   UNK     0      72.804  73.149  61.691  0.00  0.00     0.025 A 
HETATM    6  C   UNK     0      70.712  75.634  63.367  0.00  0.00     0.089 A 
HETATM    7  C   UNK     0      72.400  76.735  61.378  0.00  0.00     0.033 A 
HETATM    8  C   UNK     0      70.703  77.007  63.096  0.00  0.00     0.096 A 
HETATM    9  C   UNK     0      74.109  74.505  60.045  0.00  0.00     0.156 C 
HETATM   10  C   UNK     0      73.441  71.877  61.285  0.00  0.00     0.069 C 
HETATM   11  C   UNK     0      71.534  77.547  62.117  0.00  0.00     0.041 A 
ENDROOT
BRANCH   6  12
HETATM   12  N   UNK     0      69.851  75.100  64.376  0.00  0.00    -0.276 N 
HETATM   13  H   UNK     0      69.106  74.490  64.021  0.00  0.00     0.179 HD
BRANCH  12  14
HETATM   14  S   UNK     0      70.303  74.892  65.996  0.00  0.00     0.269 S 
HETATM   15  O   UNK     0      71.732  75.095  66.138  0.00  0.00    -0.200 OA
HETATM   16  O   UNK     0      69.672  73.702  66.535  0.00  0.00    -0.200 OA
BRANCH  14  17
HETATM   17  C   UNK     0      69.498  76.288  66.725  0.00  0.00     0.122 A 
HETATM   18  S   UNK     0      70.466  77.165  67.826  0.00  0.00    -0.064 SA
HETATM   19  C   UNK     0      69.194  78.269  68.132  0.00  0.00     0.075 A 
HETATM   20 Cl   UNK     0      69.423  79.564  69.233  0.00  0.00    -0.076 Cl
HETATM   21  C   UNK     0      68.062  77.968  67.409  0.00  0.00     0.033 A 
HETATM   22  C   UNK     0      68.241  76.816  66.590  0.00  0.00     0.035 A 
ENDBRANCH  14  17
ENDBRANCH  12  14
ENDBRANCH   6  12
BRANCH   8  23
HETATM   23  O   UNK     0      69.876  77.844  63.788  0.00  0.00    -0.354 OA
HETATM   24  C   UNK     0      70.479  78.963  64.430  0.00  0.00     0.210 C 
ENDBRANCH   8  23
BRANCH   4  25
HETATM   25  C   UNK     0      71.250  72.386  63.472  0.00  0.00     0.296 C 
HETATM   26  O   UNK     0      70.218  71.743  63.215  0.00  0.00    -0.259 OA
BRANCH  25  27
HETATM   27  O   UNK     0      71.966  72.186  64.632  0.00  0.00    -0.318 OA
BRANCH  27  28
HETATM   28  C   UNK     0      72.766  71.000  64.707  0.00  0.00     0.174 C 
HETATM   29  C   UNK     0      73.683  71.098  65.906  0.00  0.00     0.034 C 
ENDBRANCH  27  28
ENDBRANCH  25  27
ENDBRANCH   4  25
TORSDOF 7
ENDMDL
MODEL 2
REMARK VINA RESULT:      -6.3     23.488     26.172
REMARK  7 active torsions:
REMARK  status: ('A' for Active; 'I' for Inactive)
REMARK    1  A    between atoms: S_2  and  N_10 
REMARK    2  A    between atoms: S_2  and  C_22 
REMARK    3  A    between atoms: O_4  and  C_17 
REMARK    4  A    between atoms: O_5  and  C_21 
REMARK    5  A    between atoms: O_5  and  C_24 
REMARK    6  A    between atoms: N_10  and  C_15 
REMARK    7  A    between atoms: C_13  and  C_21 
ROOT
HETATM    1  N   UNK     0      62.484  51.743  49.472  0.00  0.00    -0.353 N 
HETATM    2  C   UNK     0      63.870  53.282  50.298  0.00  0.00     0.039 A 
HETATM    3  C   UNK     0      63.063  52.963  49.204  0.00  0.00     0.048 A 
HETATM    4  C   UNK     0      63.756  52.213  51.229  0.00  0.00     0.076 A 
HETATM    5  C   UNK     0      62.897  51.281  50.693  0.00  0.00     0.025 A 
HETATM    6  C   UNK     0      64.586  54.496  50.281  0.00  0.00     0.089 A 
HETATM    7  C   UNK     0      62.935  53.798  48.090  0.00  0.00     0.033 A 
HETATM    8  C   UNK     0      64.467  55.343  49.172  0.00  0.00     0.096 A 
HETATM    9  C   UNK     0      61.569  51.049  48.588  0.00  0.00     0.156 C 
HETATM   10  C   UNK     0      62.430  49.987  51.238  0.00  0.00     0.069 C 
HETATM   11  C   UNK     0      63.654  54.997  48.095  0.00  0.00     0.041 A 
ENDROOT
BRANCH   6  12
HETATM   12  N   UNK     0      65.426  54.869  51.377  0.00  0.00    -0.276 N 
HETATM   13  H   UNK     0      64.938  54.960  52.276  0.00  0.00     0.179 HD
BRANCH  12  14
HETATM   14  S   UNK     0      67.093  54.573  51.437  0.00  0.00     0.269 S 
HETATM   15  O   UNK     0      67.816  55.727  50.937  0.00  0.00    -0.200 OA
HETATM   16  O   UNK     0      67.377  53.247  50.924  0.00  0.00    -0.200 OA
BRANCH  14  17
HETATM   17  C   UNK     0      67.336  54.520  53.189  0.00  0.00     0.122 A 
HETATM   18  S   UNK     0      68.739  53.680  53.681  0.00  0.00    -0.064 SA
HETATM   19  C   UNK     0      68.393  53.979  55.331  0.00  0.00     0.075 A 
HETATM   20 Cl   UNK     0      69.446  53.397  56.552  0.00  0.00    -0.076 Cl
HETATM   21  C   UNK     0      67.233  54.702  55.493  0.00  0.00     0.033 A 
HETATM   22  C   UNK     0      66.619  55.016  54.246  0.00  0.00     0.035 A 
ENDBRANCH  14  17
ENDBRANCH  12  14
ENDBRANCH   6  12
BRANCH   8  23
HETATM   23  O   UNK     0      65.148  56.525  49.128  0.00  0.00    -0.354 OA
HETATM   24  C   UNK     0      66.032  56.720  48.028  0.00  0.00     0.210 C 
ENDBRANCH   8  23
BRANCH   4  25
HETATM   25  C   UNK     0      64.395  52.077  52.508  0.00  0.00     0.296 C 
HETATM   26  O   UNK     0      65.282  51.256  52.799  0.00  0.00    -0.259 OA
BRANCH  25  27
HETATM   27  O   UNK     0      63.910  52.984  53.425  0.00  0.00    -0.318 OA
BRANCH  27  28
HETATM   28  C   UNK     0      62.557  52.809  53.860  0.00  0.00     0.174 C 
HETATM   29  C   UNK     0      62.478  51.584  54.745  0.00  0.00     0.034 C 
ENDBRANCH  27  28
ENDBRANCH  25  27
ENDBRANCH   4  25
TORSDOF 7
ENDMDL
MODEL 3
REMARK VINA RESULT:      -6.3     25.870     27.945
REMARK  7 active torsions:
REMARK  status: ('A' for Active; 'I' for Inactive)
REMARK    1  A    between atoms: S_2  and  N_10 
REMARK    2  A    between atoms: S_2  and  C_22 
REMARK    3  A    between atoms: O_4  and  C_17 
REMARK    4  A    between atoms: O_5  and  C_21 
REMARK    5  A    between atoms: O_5  and  C_24 
REMARK    6  A    between atoms: N_10  and  C_15 
REMARK    7  A    between atoms: C_13  and  C_21 
ROOT
HETATM    1  N   UNK     0      49.564  53.948  68.644  0.00  0.00    -0.353 N 
HETATM    2  C   UNK     0      51.779  54.037  68.893  0.00  0.00     0.039 A 
HETATM    3  C   UNK     0      50.709  53.184  68.611  0.00  0.00     0.048 A 
HETATM    4  C   UNK     0      51.236  55.336  69.096  0.00  0.00     0.076 A 
HETATM    5  C   UNK     0      49.872  55.250  68.937  0.00  0.00     0.025 A 
HETATM    6  C   UNK     0      53.082  53.502  68.922  0.00  0.00     0.089 A 
HETATM    7  C   UNK     0      50.877  51.820  68.356  0.00  0.00     0.033 A 
HETATM    8  C   UNK     0      53.266  52.138  68.668  0.00  0.00     0.096 A 
HETATM    9  C   UNK     0      48.226  53.446  68.402  0.00  0.00     0.156 C 
HETATM   10  C   UNK     0      48.830  56.296  69.037  0.00  0.00     0.069 C 
HETATM   11  C   UNK     0      52.180  51.312  68.390  0.00  0.00     0.041 A 
ENDROOT
BRANCH   6  12
HETATM   12  N   UNK     0      54.211  54.334  69.205  0.00  0.00    -0.276 N 
HETATM   13  H   UNK     0      54.348  55.106  68.543  0.00  0.00     0.179 HD
BRANCH  12  14
HETATM   14  S   UNK     0      54.890  54.517  70.747  0.00  0.00     0.269 S 
HETATM   15  O   UNK     0      55.951  53.546  70.936  0.00  0.00    -0.200 OA
HETATM   16  O   UNK     0      53.838  54.660  71.735  0.00  0.00    -0.200 OA
BRANCH  14  17
HETATM   17  C   UNK     0      55.655  56.103  70.563  0.00  0.00     0.122 A 
HETATM   18  S   UNK     0      56.326  56.388  69.019  0.00  0.00    -0.064 SA
HETATM   19  C   UNK     0      56.854  57.947  69.489  0.00  0.00     0.075 A 
HETATM   20 Cl   UNK     0      57.689  58.946  68.372  0.00  0.00    -0.076 Cl
HETATM   21  C   UNK     0      56.523  58.234  70.793  0.00  0.00     0.033 A 
HETATM   22  C   UNK     0      55.824  57.160  71.417  0.00  0.00     0.035 A 
ENDBRANCH  14  17
ENDBRANCH  12  14
ENDBRANCH   6  12
BRANCH   8  23
HETATM   23  O   UNK     0      54.517  51.592  68.689  0.00  0.00    -0.354 OA
HETATM   24  C   UNK     0      55.106  51.279  67.431  0.00  0.00     0.210 C 
ENDBRANCH   8  23
BRANCH   4  25
HETATM   25  C   UNK     0      51.935  56.551  69.412  0.00  0.00     0.296 C 
HETATM   26  O   UNK     0      51.905  57.150  70.500  0.00  0.00    -0.259 OA
BRANCH  25  27
HETATM   27  O   UNK     0      52.676  57.011  68.344  0.00  0.00    -0.318 OA
BRANCH  27  28
HETATM   28  C   UNK     0      53.337  58.271  68.506  0.00  0.00     0.174 C 
HETATM   29  C   UNK     0      53.993  58.655  67.198  0.00  0.00     0.034 C 
ENDBRANCH  27  28
ENDBRANCH  25  27
ENDBRANCH   4  25
TORSDOF 7
ENDMDL
MODEL 4
REMARK VINA RESULT:      -6.1     26.865     28.838
REMARK  7 active torsions:
REMARK  status: ('A' for Active; 'I' for Inactive)
REMARK    1  A    between atoms: S_2  and  N_10 
REMARK    2  A    between atoms: S_2  and  C_22 
REMARK    3  A    between atoms: O_4  and  C_17 
REMARK    4  A    between atoms: O_5  and  C_21 
REMARK    5  A    between atoms: O_5  and  C_24 
REMARK    6  A    between atoms: N_10  and  C_15 
REMARK    7  A    between atoms: C_13  and  C_21 
ROOT
HETATM    1  N   UNK     0      50.567  55.982  75.254  0.00  0.00    -0.353 N 
HETATM    2  C   UNK     0      50.479  56.616  73.117  0.00  0.00     0.039 A 
HETATM    3  C   UNK     0      49.739  56.528  74.299  0.00  0.00     0.048 A 
HETATM    4  C   UNK     0      51.776  56.104  73.397  0.00  0.00     0.076 A 
HETATM    5  C   UNK     0      51.800  55.721  74.718  0.00  0.00     0.025 A 
HETATM    6  C   UNK     0      49.860  57.149  71.969  0.00  0.00     0.089 A 
HETATM    7  C   UNK     0      48.408  56.948  74.390  0.00  0.00     0.033 A 
HETATM    8  C   UNK     0      48.528  57.572  72.045  0.00  0.00     0.096 A 
HETATM    9  C   UNK     0      50.187  55.723  76.628  0.00  0.00     0.156 C 
HETATM   10  C   UNK     0      52.891  55.129  75.523  0.00  0.00     0.069 C 
HETATM   11  C   UNK     0      47.815  57.473  73.237  0.00  0.00     0.041 A 
ENDROOT
BRANCH   6  12
HETATM   12  N   UNK     0      50.575  57.259  70.734  0.00  0.00    -0.276 N 
HETATM   13  H   UNK     0      51.412  57.851  70.779  0.00  0.00     0.179 HD
BRANCH  12  14
HETATM   14  S   UNK     0      50.523  56.099  69.501  0.00  0.00     0.269 S 
HETATM   15  O   UNK     0      49.646  56.550  68.437  0.00  0.00    -0.200 OA
HETATM   16  O   UNK     0      50.363  54.777  70.075  0.00  0.00    -0.200 OA
BRANCH  14  17
HETATM   17  C   UNK     0      52.182  56.211  68.898  0.00  0.00     0.122 A 
HETATM   18  S   UNK     0      52.820  57.795  68.875  0.00  0.00    -0.064 SA
HETATM   19  C   UNK     0      54.307  57.235  68.239  0.00  0.00     0.075 A 
HETATM   20 Cl   UNK     0      55.577  58.341  67.917  0.00  0.00    -0.076 Cl
HETATM   21  C   UNK     0      54.308  55.871  68.051  0.00  0.00     0.033 A 
HETATM   22  C   UNK     0      53.071  55.277  68.435  0.00  0.00     0.035 A 
ENDBRANCH  14  17
ENDBRANCH  12  14
ENDBRANCH   6  12
BRANCH   8  23
HETATM   23  O   UNK     0      47.903  58.092  70.948  0.00  0.00    -0.354 OA
HETATM   24  C   UNK     0      46.649  57.521  70.589  0.00  0.00     0.210 C 
ENDBRANCH   8  23
BRANCH   4  25
HETATM   25  C   UNK     0      52.894  55.982  72.503  0.00  0.00     0.296 C 
HETATM   26  O   UNK     0      53.575  56.919  72.052  0.00  0.00    -0.259 OA
BRANCH  25  27
HETATM   27  O   UNK     0      53.153  54.667  72.179  0.00  0.00    -0.318 OA
BRANCH  27  28
HETATM   28  C   UNK     0      54.474  54.181  72.444  0.00  0.00     0.174 C 
HETATM   29  C   UNK     0      55.149  53.850  71.131  0.00  0.00     0.034 C 
ENDBRANCH  27  28
ENDBRANCH  25  27
ENDBRANCH   4  25
TORSDOF 7
ENDMDL
MODEL 5
REMARK VINA RESULT:      -6.1     24.567     27.230
REMARK  7 active torsions:
REMARK  status: ('A' for Active; 'I' for Inactive)
REMARK    1  A    between atoms: S_2  and  N_10 
REMARK    2  A    between atoms: S_2  and  C_22 
REMARK    3  A    between atoms: O_4  and  C_17 
REMARK    4  A    between atoms: O_5  and  C_21 
REMARK    5  A    between atoms: O_5  and  C_24 
REMARK    6  A    between atoms: N_10  and  C_15 
REMARK    7  A    between atoms: C_13  and  C_21 
ROOT
HETATM    1  N   UNK     0      65.054  53.901  49.851  0.00  0.00    -0.353 N 
HETATM    2  C   UNK     0      64.025  52.866  51.537  0.00  0.00     0.039 A 
HETATM    3  C   UNK     0      64.142  52.913  50.146  0.00  0.00     0.048 A 
HETATM    4  C   UNK     0      64.895  53.859  52.064  0.00  0.00     0.076 A 
HETATM    5  C   UNK     0      65.515  54.479  51.003  0.00  0.00     0.025 A 
HETATM    6  C   UNK     0      63.144  51.927  52.111  0.00  0.00     0.089 A 
HETATM    7  C   UNK     0      63.421  52.066  49.297  0.00  0.00     0.033 A 
HETATM    8  C   UNK     0      62.416  51.074  51.274  0.00  0.00     0.096 A 
HETATM    9  C   UNK     0      65.467  54.273  48.512  0.00  0.00     0.156 C 
HETATM   10  C   UNK     0      66.509  55.575  50.984  0.00  0.00     0.069 C 
HETATM   11  C   UNK     0      62.554  51.143  49.890  0.00  0.00     0.041 A 
ENDROOT
BRANCH   6  12
HETATM   12  N   UNK     0      62.988  51.840  53.531  0.00  0.00    -0.276 N 
HETATM   13  H   UNK     0      62.077  52.160  53.879  0.00  0.00     0.179 HD
BRANCH  12  14
HETATM   14  S   UNK     0      63.849  50.763  54.514  0.00  0.00     0.269 S 
HETATM   15  O   UNK     0      64.573  51.498  55.534  0.00  0.00    -0.200 OA
HETATM   16  O   UNK     0      64.530  49.781  53.692  0.00  0.00    -0.200 OA
BRANCH  14  17
HETATM   17  C   UNK     0      62.507  49.934  55.316  0.00  0.00     0.122 A 
HETATM   18  S   UNK     0      62.895  49.279  56.845  0.00  0.00    -0.064 SA
HETATM   19  C   UNK     0      61.306  48.675  57.039  0.00  0.00     0.075 A 
HETATM   20 Cl   UNK     0      60.877  47.818  58.461  0.00  0.00    -0.076 Cl
HETATM   21  C   UNK     0      60.505  48.970  55.958  0.00  0.00     0.033 A 
HETATM   22  C   UNK     0      61.206  49.703  54.958  0.00  0.00     0.035 A 
ENDBRANCH  14  17
ENDBRANCH  12  14
ENDBRANCH   6  12
BRANCH   8  23
HETATM   23  O   UNK     0      61.555  50.155  51.803  0.00  0.00    -0.354 OA
HETATM   24  C   UNK     0      61.729  48.800  51.398  0.00  0.00     0.210 C 
ENDBRANCH   8  23
BRANCH   4  25
HETATM   25  C   UNK     0      65.127  54.197  53.441  0.00  0.00     0.296 C 
HETATM   26  O   UNK     0      64.334  54.791  54.191  0.00  0.00    -0.259 OA
BRANCH  25  27
HETATM   27  O   UNK     0      66.369  53.782  53.871  0.00  0.00    -0.318 OA
BRANCH  27  28
HETATM   28  C   UNK     0      67.166  54.739  54.577  0.00  0.00     0.174 C 
HETATM   29  C   UNK     0      67.792  54.068  55.780  0.00  0.00     0.034 C 
ENDBRANCH  27  28
ENDBRANCH  25  27
ENDBRANCH   4  25
TORSDOF 7
ENDMDL
MODEL 6
REMARK VINA RESULT:      -6.0      2.901      5.457
REMARK  7 active torsions:
REMARK  status: ('A' for Active; 'I' for Inactive)
REMARK    1  A    between atoms: S_2  and  N_10 
REMARK    2  A    between atoms: S_2  and  C_22 
REMARK    3  A    between atoms: O_4  and  C_17 
REMARK    4  A    between atoms: O_5  and  C_21 
REMARK    5  A    between atoms: O_5  and  C_24 
REMARK    6  A    between atoms: N_10  and  C_15 
REMARK    7  A    between atoms: C_13  and  C_21 
ROOT
HETATM    1  N   UNK     0      73.869  76.898  58.482  0.00  0.00    -0.353 N 
HETATM    2  C   UNK     0      72.963  77.202  60.498  0.00  0.00     0.039 A 
HETATM    3  C   UNK     0      73.654  76.288  59.698  0.00  0.00     0.048 A 
HETATM    4  C   UNK     0      72.771  78.377  59.720  0.00  0.00     0.076 A 
HETATM    5  C   UNK     0      73.338  78.160  58.485  0.00  0.00     0.025 A 
HETATM    6  C   UNK     0      72.614  76.825  61.810  0.00  0.00     0.089 A 
HETATM    7  C   UNK     0      74.016  75.014  60.146  0.00  0.00     0.033 A 
HETATM    8  C   UNK     0      72.969  75.552  62.272  0.00  0.00     0.096 A 
HETATM    9  C   UNK     0      74.559  76.290  57.362  0.00  0.00     0.156 C 
HETATM   10  C   UNK     0      73.424  79.045  57.303  0.00  0.00     0.069 C 
HETATM   11  C   UNK     0      73.659  74.663  61.452  0.00  0.00     0.041 A 
ENDROOT
BRANCH   6  12
HETATM   12  N   UNK     0      71.906  77.724  62.668  0.00  0.00    -0.276 N 
HETATM   13  H   UNK     0      72.391  78.610  62.850  0.00  0.00     0.179 HD
BRANCH  12  14
HETATM   14  S   UNK     0      70.223  77.718  62.867  0.00  0.00     0.269 S 
HETATM   15  O   UNK     0      69.642  76.627  62.107  0.00  0.00    -0.200 OA
HETATM   16  O   UNK     0      69.706  79.066  62.731  0.00  0.00    -0.200 OA
BRANCH  14  17
HETATM   17  C   UNK     0      70.114  77.284  64.579  0.00  0.00     0.122 A 
HETATM   18  S   UNK     0      71.284  78.032  65.572  0.00  0.00    -0.064 SA
HETATM   19  C   UNK     0      70.669  77.246  66.963  0.00  0.00     0.075 A 
HETATM   20 Cl   UNK     0      71.387  77.520  68.496  0.00  0.00    -0.076 Cl
HETATM   21  C   UNK     0      69.597  76.435  66.668  0.00  0.00     0.033 A 
HETATM   22  C   UNK     0      69.275  76.459  65.280  0.00  0.00     0.035 A 
ENDBRANCH  14  17
ENDBRANCH  12  14
ENDBRANCH   6  12
BRANCH   8  23
HETATM   23  O   UNK     0      72.645  75.161  63.539  0.00  0.00    -0.354 OA
HETATM   24  C   UNK     0      71.748  74.061  63.665  0.00  0.00     0.210 C 
ENDBRANCH   8  23
BRANCH   4  25
HETATM   25  C   UNK     0      72.112  79.596  60.100  0.00  0.00     0.296 C 
HETATM   26  O   UNK     0      71.105  80.083  59.558  0.00  0.00    -0.259 OA
BRANCH  25  27
HETATM   27  O   UNK     0      72.731  80.201  61.173  0.00  0.00    -0.318 OA
BRANCH  27  28
HETATM   28  C   UNK     0      73.935  80.928  60.903  0.00  0.00     0.174 C 
HETATM   29  C   UNK     0      75.011  80.473  61.864  0.00  0.00     0.034 C 
ENDBRANCH  27  28
ENDBRANCH  25  27
ENDBRANCH   4  25
TORSDOF 7
ENDMDL
MODEL 7
REMARK VINA RESULT:      -6.0     26.229     28.258
REMARK  7 active torsions:
REMARK  status: ('A' for Active; 'I' for Inactive)
REMARK    1  A    between atoms: S_2  and  N_10 
REMARK    2  A    between atoms: S_2  and  C_22 
REMARK    3  A    between atoms: O_4  and  C_17 
REMARK    4  A    between atoms: O_5  and  C_21 
REMARK    5  A    between atoms: O_5  and  C_24 
REMARK    6  A    between atoms: N_10  and  C_15 
REMARK    7  A    between atoms: C_13  and  C_21 
ROOT
HETATM    1  N   UNK     0      48.876  56.400  72.108  0.00  0.00    -0.353 N 
HETATM    2  C   UNK     0      51.094  56.306  72.324  0.00  0.00     0.039 A 
HETATM    3  C   UNK     0      49.886  56.124  73.001  0.00  0.00     0.048 A 
HETATM    4  C   UNK     0      50.773  56.701  70.996  0.00  0.00     0.076 A 
HETATM    5  C   UNK     0      49.402  56.751  70.893  0.00  0.00     0.025 A 
HETATM    6  C   UNK     0      52.300  56.086  73.018  0.00  0.00     0.089 A 
HETATM    7  C   UNK     0      49.823  55.731  74.342  0.00  0.00     0.033 A 
HETATM    8  C   UNK     0      52.253  55.691  74.360  0.00  0.00     0.096 A 
HETATM    9  C   UNK     0      47.461  56.328  72.410  0.00  0.00     0.156 C 
HETATM   10  C   UNK     0      48.542  57.101  69.741  0.00  0.00     0.069 C 
HETATM   11  C   UNK     0      51.034  55.517  75.010  0.00  0.00     0.041 A 
ENDROOT
BRANCH   6  12
HETATM   12  N   UNK     0      53.564  56.259  72.369  0.00  0.00    -0.276 N 
HETATM   13  H   UNK     0      54.037  57.143  72.589  0.00  0.00     0.179 HD
BRANCH  12  14
HETATM   14  S   UNK     0      54.537  54.981  71.833  0.00  0.00     0.269 S 
HETATM   15  O   UNK     0      53.707  53.925  71.286  0.00  0.00    -0.200 OA
HETATM   16  O   UNK     0      55.548  54.680  72.829  0.00  0.00    -0.200 OA
BRANCH  14  17
HETATM   17  C   UNK     0      55.358  55.763  70.474  0.00  0.00     0.122 A 
HETATM   18  S   UNK     0      55.971  57.319  70.821  0.00  0.00    -0.064 SA
HETATM   19  C   UNK     0      56.574  57.484  69.228  0.00  0.00     0.075 A 
HETATM   20 Cl   UNK     0      57.400  58.913  68.763  0.00  0.00    -0.076 Cl
HETATM   21  C   UNK     0      56.309  56.375  68.456  0.00  0.00     0.033 A 
HETATM   22  C   UNK     0      55.602  55.375  69.184  0.00  0.00     0.035 A 
ENDBRANCH  14  17
ENDBRANCH  12  14
ENDBRANCH   6  12
BRANCH   8  23
HETATM   23  O   UNK     0      53.406  55.471  75.058  0.00  0.00    -0.354 OA
HETATM   24  C   UNK     0      53.271  55.077  76.420  0.00  0.00     0.210 C 
ENDBRANCH   8  23
BRANCH   4  25
HETATM   25  C   UNK     0      51.673  57.007  69.918  0.00  0.00     0.296 C 
HETATM   26  O   UNK     0      52.606  57.826  69.954  0.00  0.00    -0.259 OA
BRANCH  25  27
HETATM   27  O   UNK     0      51.390  56.270  68.788  0.00  0.00    -0.318 OA
BRANCH  27  28
HETATM   28  C   UNK     0      52.023  54.991  68.670  0.00  0.00     0.174 C 
HETATM   29  C   UNK     0      50.980  53.907  68.832  0.00  0.00     0.034 C 
ENDBRANCH  27  28
ENDBRANCH  25  27
ENDBRANCH   4  25
TORSDOF 7
ENDMDL
MODEL 8
REMARK VINA RESULT:      -5.9      7.229     10.395
REMARK  7 active torsions:
REMARK  status: ('A' for Active; 'I' for Inactive)
REMARK    1  A    between atoms: S_2  and  N_10 
REMARK    2  A    between atoms: S_2  and  C_22 
REMARK    3  A    between atoms: O_4  and  C_17 
REMARK    4  A    between atoms: O_5  and  C_21 
REMARK    5  A    between atoms: O_5  and  C_24 
REMARK    6  A    between atoms: N_10  and  C_15 
REMARK    7  A    between atoms: C_13  and  C_21 
ROOT
HETATM    1  N   UNK     0      75.317  81.173  61.529  0.00  0.00    -0.353 N 
HETATM    2  C   UNK     0      74.748  79.549  60.110  0.00  0.00     0.039 A 
HETATM    3  C   UNK     0      74.500  80.074  61.380  0.00  0.00     0.048 A 
HETATM    4  C   UNK     0      75.741  80.369  59.504  0.00  0.00     0.076 A 
HETATM    5  C   UNK     0      76.071  81.359  60.401  0.00  0.00     0.025 A 
HETATM    6  C   UNK     0      74.034  78.406  59.698  0.00  0.00     0.089 A 
HETATM    7  C   UNK     0      73.572  79.513  62.262  0.00  0.00     0.033 A 
HETATM    8  C   UNK     0      73.101  77.833  60.570  0.00  0.00     0.096 A 
HETATM    9  C   UNK     0      75.368  82.012  62.710  0.00  0.00     0.156 C 
HETATM   10  C   UNK     0      77.040  82.470  60.284  0.00  0.00     0.069 C 
HETATM   11  C   UNK     0      72.875  78.379  61.831  0.00  0.00     0.041 A 
ENDROOT
BRANCH   6  12
HETATM   12  N   UNK     0      74.252  77.830  58.407  0.00  0.00    -0.276 N 
HETATM   13  H   UNK     0      74.162  78.489  57.625  0.00  0.00     0.179 HD
BRANCH  12  14
HETATM   14  S   UNK     0      75.184  76.441  58.133  0.00  0.00     0.269 S 
HETATM   15  O   UNK     0      74.315  75.302  57.905  0.00  0.00    -0.200 OA
HETATM   16  O   UNK     0      76.254  76.366  59.109  0.00  0.00    -0.200 OA
BRANCH  14  17
HETATM   17  C   UNK     0      75.919  76.861  56.580  0.00  0.00     0.122 A 
HETATM   18  S   UNK     0      74.964  77.882  55.599  0.00  0.00    -0.064 SA
HETATM   19  C   UNK     0      76.153  77.886  54.368  0.00  0.00     0.075 A 
HETATM   20 Cl   UNK     0      75.897  78.776  52.926  0.00  0.00    -0.076 Cl
HETATM   21  C   UNK     0      77.249  77.124  54.705  0.00  0.00     0.033 A 
HETATM   22  C   UNK     0      77.111  76.529  55.992  0.00  0.00     0.035 A 
ENDBRANCH  14  17
ENDBRANCH  12  14
ENDBRANCH   6  12
BRANCH   8  23
HETATM   23  O   UNK     0      72.395  76.726  60.198  0.00  0.00    -0.354 OA
HETATM   24  C   UNK     0      71.888  75.902  61.244  0.00  0.00     0.210 C 
ENDBRANCH   8  23
BRANCH   4  25
HETATM   25  C   UNK     0      76.328  80.235  58.200  0.00  0.00     0.296 C 
HETATM   26  O   UNK     0      77.348  79.583  57.920  0.00  0.00    -0.259 OA
BRANCH  25  27
HETATM   27  O   UNK     0      75.621  80.932  57.244  0.00  0.00    -0.318 OA
BRANCH  27  28
HETATM   28  C   UNK     0      76.307  81.996  56.573  0.00  0.00     0.174 C 
HETATM   29  C   UNK     0      76.471  81.633  55.114  0.00  0.00     0.034 C 
ENDBRANCH  27  28
ENDBRANCH  25  27
ENDBRANCH   4  25
TORSDOF 7
ENDMDL
MODEL 9
REMARK VINA RESULT:      -5.9     27.163     28.857
REMARK  7 active torsions:
REMARK  status: ('A' for Active; 'I' for Inactive)
REMARK    1  A    between atoms: S_2  and  N_10 
REMARK    2  A    between atoms: S_2  and  C_22 
REMARK    3  A    between atoms: O_4  and  C_17 
REMARK    4  A    between atoms: O_5  and  C_21 
REMARK    5  A    between atoms: O_5  and  C_24 
REMARK    6  A    between atoms: N_10  and  C_15 
REMARK    7  A    between atoms: C_13  and  C_21 
ROOT
HETATM    1  N   UNK     0      67.020  46.176  66.361  0.00  0.00    -0.353 N 
HETATM    2  C   UNK     0      65.569  46.504  64.699  0.00  0.00     0.039 A 
HETATM    3  C   UNK     0      66.897  46.186  64.989  0.00  0.00     0.048 A 
HETATM    4  C   UNK     0      64.901  46.685  65.941  0.00  0.00     0.076 A 
HETATM    5  C   UNK     0      65.819  46.477  66.945  0.00  0.00     0.025 A 
HETATM    6  C   UNK     0      65.170  46.581  63.350  0.00  0.00     0.089 A 
HETATM    7  C   UNK     0      67.850  45.939  63.996  0.00  0.00     0.033 A 
HETATM    8  C   UNK     0      66.113  46.336  62.344  0.00  0.00     0.096 A 
HETATM    9  C   UNK     0      68.244  45.886  67.081  0.00  0.00     0.156 C 
HETATM   10  C   UNK     0      65.659  46.538  68.415  0.00  0.00     0.069 C 
HETATM   11  C   UNK     0      67.431  46.021  62.664  0.00  0.00     0.041 A 
ENDROOT
BRANCH   6  12
HETATM   12  N   UNK     0      63.821  46.903  63.000  0.00  0.00    -0.276 N 
HETATM   13  H   UNK     0      63.109  46.414  63.554  0.00  0.00     0.179 HD
BRANCH  12  14
HETATM   14  S   UNK     0      63.353  48.357  62.266  0.00  0.00     0.269 S 
HETATM   15  O   UNK     0      62.798  48.089  60.953  0.00  0.00    -0.200 OA
HETATM   16  O   UNK     0      64.396  49.352  62.434  0.00  0.00    -0.200 OA
BRANCH  14  17
HETATM   17  C   UNK     0      62.011  48.821  63.321  0.00  0.00     0.122 A 
HETATM   18  S   UNK     0      62.128  50.401  63.958  0.00  0.00    -0.064 SA
HETATM   19  C   UNK     0      60.654  50.214  64.809  0.00  0.00     0.075 A 
HETATM   20 Cl   UNK     0      60.045  51.497  65.770  0.00  0.00    -0.076 Cl
HETATM   21  C   UNK     0      60.094  48.973  64.607  0.00  0.00     0.033 A 
HETATM   22  C   UNK     0      60.884  48.164  63.740  0.00  0.00     0.035 A 
ENDBRANCH  14  17
ENDBRANCH  12  14
ENDBRANCH   6  12
BRANCH   8  23
HETATM   23  O   UNK     0      65.755  46.403  61.029  0.00  0.00    -0.354 OA
HETATM   24  C   UNK     0      66.272  45.394  60.166  0.00  0.00     0.210 C 
ENDBRANCH   8  23
BRANCH   4  25
HETATM   25  C   UNK     0      63.523  47.024  66.168  0.00  0.00     0.296 C 
HETATM   26  O   UNK     0      62.552  46.258  66.048  0.00  0.00    -0.259 OA
BRANCH  25  27
HETATM   27  O   UNK     0      63.374  48.340  66.549  0.00  0.00    -0.318 OA
BRANCH  27  28
HETATM   28  C   UNK     0      62.574  48.595  67.709  0.00  0.00     0.174 C 
HETATM   29  C   UNK     0      62.588  50.079  68.002  0.00  0.00     0.034 C 
ENDBRANCH  27  28
ENDBRANCH  25  27
ENDBRANCH   4  25
TORSDOF 7
ENDMDL
