MODEL 1
REMARK VINA RESULT:      -7.1      0.000      0.000
REMARK  7 active torsions:
REMARK  status: ('A' for Active; 'I' for Inactive)
REMARK    1  A    between atoms: O_2  and  C_5 
REMARK    2  A    between atoms: N_3  and  C_13 
REMARK    3  A    between atoms: N_3  and  C_14 
REMARK    4  A    between atoms: N_4  and  C_18 
REMARK    5  A    between atoms: C_5  and  C_9 
REMARK    6  A    between atoms: C_9  and  C_13 
REMARK    7  A    between atoms: C_14  and  C_15 
ROOT
HETATM    1  N   UNK     0      54.379  55.573  68.781  0.00  0.00     0.087 N 
HETATM    2  H   UNK     0      53.687  55.370  69.501  0.00  0.00     0.316 HD
ENDROOT
BRANCH   1   3
HETATM    3  C   UNK     0      55.045  54.336  68.392  0.00  0.00     0.273 C 
BRANCH   3   4
HETATM    4  C   UNK     0      54.088  53.161  68.542  0.00  0.00     0.068 C 
BRANCH   4   5
HETATM    5  C   UNK     0      54.510  51.993  67.648  0.00  0.00     0.064 C 
HETATM    6  C   UNK     0      54.920  52.499  66.256  0.00  0.00     0.075 C 
HETATM    7  C   UNK     0      55.123  51.377  65.211  0.00  0.00     0.056 C 
HETATM    8  O   UNK     0      54.019  50.461  65.225  0.00  0.00    -0.381 OA
HETATM    9  C   UNK     0      55.123  52.005  63.808  0.00  0.00     0.045 C 
HETATM   10  C   UNK     0      56.452  50.625  65.384  0.00  0.00     0.045 C 
HETATM   11  C   UNK     0      53.719  49.892  66.497  0.00  0.00     0.171 C 
HETATM   12  C   UNK     0      53.376  50.971  67.516  0.00  0.00     0.064 C 
BRANCH   5  13
HETATM   13  O   UNK     0      55.638  51.373  68.265  0.00  0.00    -0.390 OA
HETATM   14  H   UNK     0      55.521  51.424  69.230  0.00  0.00     0.210 HD
ENDBRANCH   5  13
ENDBRANCH   4   5
ENDBRANCH   3   4
ENDBRANCH   1   3
BRANCH   1  15
HETATM   15  C   UNK     0      55.339  56.545  69.284  0.00  0.00     0.308 C 
BRANCH  15  16
HETATM   16  C   UNK     0      55.230  57.814  68.496  0.00  0.00    -0.030 A 
HETATM   17  C   UNK     0      54.160  57.996  67.625  0.00  0.00     0.011 A 
HETATM   18  C   UNK     0      54.059  59.177  66.890  0.00  0.00     0.030 A 
HETATM   19  C   UNK     0      55.028  60.171  67.030  0.00  0.00     0.029 A 
HETATM   20  C   UNK     0      56.098  59.983  67.906  0.00  0.00     0.030 A 
HETATM   21  C   UNK     0      56.199  58.802  68.639  0.00  0.00     0.011 A 
BRANCH  19  22
HETATM   22  N   UNK     0      54.925  61.366  66.288  0.00  0.00    -0.390 N 
HETATM   23  C   UNK     0      54.274  62.527  66.848  0.00  0.00     0.149 C 
HETATM   24  C   UNK     0      55.473  61.456  64.955  0.00  0.00     0.149 C 
ENDBRANCH  19  22
ENDBRANCH  15  16
ENDBRANCH   1  15
TORSDOF 7
ENDMDL
MODEL 2
REMARK VINA RESULT:      -7.0      2.884      3.865
REMARK  7 active torsions:
REMARK  status: ('A' for Active; 'I' for Inactive)
REMARK    1  A    between atoms: O_2  and  C_5 
REMARK    2  A    between atoms: N_3  and  C_13 
REMARK    3  A    between atoms: N_3  and  C_14 
REMARK    4  A    between atoms: N_4  and  C_18 
REMARK    5  A    between atoms: C_5  and  C_9 
REMARK    6  A    between atoms: C_9  and  C_13 
REMARK    7  A    between atoms: C_14  and  C_15 
ROOT
HETATM    1  N   UNK     0      55.194  55.930  68.673  0.00  0.00     0.087 N 
HETATM    2  H   UNK     0      55.338  56.153  67.689  0.00  0.00     0.316 HD
ENDROOT
BRANCH   1   3
HETATM    3  C   UNK     0      54.062  55.021  68.799  0.00  0.00     0.273 C 
BRANCH   3   4
HETATM    4  C   UNK     0      54.553  53.580  68.848  0.00  0.00     0.068 C 
BRANCH   4   5
HETATM    5  C   UNK     0      54.752  53.117  70.293  0.00  0.00     0.064 C 
HETATM    6  C   UNK     0      55.713  51.919  70.348  0.00  0.00     0.075 C 
HETATM    7  C   UNK     0      55.782  51.229  71.730  0.00  0.00     0.056 C 
HETATM    8  O   UNK     0      54.465  50.977  72.240  0.00  0.00    -0.381 OA
HETATM    9  C   UNK     0      56.431  49.846  71.558  0.00  0.00     0.045 C 
HETATM   10  C   UNK     0      56.619  52.011  72.754  0.00  0.00     0.045 C 
HETATM   11  C   UNK     0      53.613  52.117  72.309  0.00  0.00     0.171 C 
HETATM   12  C   UNK     0      53.412  52.739  70.933  0.00  0.00     0.064 C 
BRANCH   5  13
HETATM   13  O   UNK     0      55.330  54.207  71.011  0.00  0.00    -0.390 OA
HETATM   14  H   UNK     0      54.628  54.855  71.194  0.00  0.00     0.210 HD
ENDBRANCH   5  13
ENDBRANCH   4   5
ENDBRANCH   3   4
ENDBRANCH   1   3
BRANCH   1  15
HETATM   15  C   UNK     0      54.964  57.155  69.426  0.00  0.00     0.308 C 
BRANCH  15  16
HETATM   16  C   UNK     0      54.982  58.328  68.494  0.00  0.00    -0.030 A 
HETATM   17  C   UNK     0      54.098  58.370  67.421  0.00  0.00     0.011 A 
HETATM   18  C   UNK     0      54.115  59.462  66.552  0.00  0.00     0.030 A 
HETATM   19  C   UNK     0      55.016  60.505  66.762  0.00  0.00     0.029 A 
HETATM   20  C   UNK     0      55.901  60.458  67.840  0.00  0.00     0.030 A 
HETATM   21  C   UNK     0      55.884  59.366  68.707  0.00  0.00     0.011 A 
BRANCH  19  22
HETATM   22  N   UNK     0      55.033  61.610  65.885  0.00  0.00    -0.390 N 
HETATM   23  C   UNK     0      55.638  61.505  64.578  0.00  0.00     0.149 C 
HETATM   24  C   UNK     0      54.439  62.869  66.273  0.00  0.00     0.149 C 
ENDBRANCH  19  22
ENDBRANCH  15  16
ENDBRANCH   1  15
TORSDOF 7
ENDMDL
MODEL 3
REMARK VINA RESULT:      -6.8     20.715     22.786
REMARK  7 active torsions:
REMARK  status: ('A' for Active; 'I' for Inactive)
REMARK    1  A    between atoms: O_2  and  C_5 
REMARK    2  A    between atoms: N_3  and  C_13 
REMARK    3  A    between atoms: N_3  and  C_14 
REMARK    4  A    between atoms: N_4  and  C_18 
REMARK    5  A    between atoms: C_5  and  C_9 
REMARK    6  A    between atoms: C_9  and  C_13 
REMARK    7  A    between atoms: C_14  and  C_15 
ROOT
HETATM    1  N   UNK     0      65.841  74.061  64.213  0.00  0.00     0.087 N 
HETATM    2  H   UNK     0      66.578  73.682  64.807  0.00  0.00     0.316 HD
ENDROOT
BRANCH   1   3
HETATM    3  C   UNK     0      64.738  73.111  64.151  0.00  0.00     0.273 C 
BRANCH   3   4
HETATM    4  C   UNK     0      63.557  73.629  64.962  0.00  0.00     0.068 C 
BRANCH   4   5
HETATM    5  C   UNK     0      62.608  74.450  64.086  0.00  0.00     0.064 C 
HETATM    6  C   UNK     0      61.265  74.667  64.802  0.00  0.00     0.075 C 
HETATM    7  C   UNK     0      60.161  75.270  63.902  0.00  0.00     0.056 C 
HETATM    8  O   UNK     0      60.080  74.565  62.656  0.00  0.00    -0.381 OA
HETATM    9  C   UNK     0      58.801  75.060  64.587  0.00  0.00     0.045 C 
HETATM   10  C   UNK     0      60.334  76.777  63.663  0.00  0.00     0.045 C 
HETATM   11  C   UNK     0      61.302  74.475  61.929  0.00  0.00     0.171 C 
HETATM   12  C   UNK     0      62.373  73.758  62.740  0.00  0.00     0.064 C 
BRANCH   5  13
HETATM   13  O   UNK     0      63.225  75.719  63.867  0.00  0.00    -0.390 OA
HETATM   14  H   UNK     0      64.067  75.569  63.403  0.00  0.00     0.210 HD
ENDBRANCH   5  13
ENDBRANCH   4   5
ENDBRANCH   3   4
ENDBRANCH   1   3
BRANCH   1  15
HETATM   15  C   UNK     0      66.372  74.331  62.885  0.00  0.00     0.308 C 
BRANCH  15  16
HETATM   16  C   UNK     0      67.802  73.889  62.816  0.00  0.00    -0.030 A 
HETATM   17  C   UNK     0      68.100  72.543  62.625  0.00  0.00     0.011 A 
HETATM   18  C   UNK     0      69.432  72.132  62.562  0.00  0.00     0.030 A 
HETATM   19  C   UNK     0      70.458  73.068  62.690  0.00  0.00     0.029 A 
HETATM   20  C   UNK     0      70.152  74.416  62.880  0.00  0.00     0.030 A 
HETATM   21  C   UNK     0      68.822  74.827  62.944  0.00  0.00     0.011 A 
BRANCH  19  22
HETATM   22  N   UNK     0      71.804  72.653  62.624  0.00  0.00    -0.390 N 
HETATM   23  C   UNK     0      72.725  73.279  61.705  0.00  0.00     0.149 C 
HETATM   24  C   UNK     0      72.292  71.596  63.480  0.00  0.00     0.149 C 
ENDBRANCH  19  22
ENDBRANCH  15  16
ENDBRANCH   1  15
TORSDOF 7
ENDMDL
MODEL 4
REMARK VINA RESULT:      -6.7     19.112     22.570
REMARK  7 active torsions:
REMARK  status: ('A' for Active; 'I' for Inactive)
REMARK    1  A    between atoms: O_2  and  C_5 
REMARK    2  A    between atoms: N_3  and  C_13 
REMARK    3  A    between atoms: N_3  and  C_14 
REMARK    4  A    between atoms: N_4  and  C_18 
REMARK    5  A    between atoms: C_5  and  C_9 
REMARK    6  A    between atoms: C_9  and  C_13 
REMARK    7  A    between atoms: C_14  and  C_15 
ROOT
HETATM    1  N   UNK     0      64.985  74.530  61.191  0.00  0.00     0.087 N 
HETATM    2  H   UNK     0      65.260  75.193  61.915  0.00  0.00     0.316 HD
ENDROOT
BRANCH   1   3
HETATM    3  C   UNK     0      63.544  74.614  60.987  0.00  0.00     0.273 C 
BRANCH   3   4
HETATM    4  C   UNK     0      62.976  75.797  61.759  0.00  0.00     0.068 C 
BRANCH   4   5
HETATM    5  C   UNK     0      62.578  75.387  63.178  0.00  0.00     0.064 C 
HETATM    6  C   UNK     0      62.101  73.926  63.205  0.00  0.00     0.075 C 
HETATM    7  C   UNK     0      61.448  73.500  64.540  0.00  0.00     0.056 C 
HETATM    8  O   UNK     0      60.475  74.465  64.961  0.00  0.00    -0.381 OA
HETATM    9  C   UNK     0      60.667  72.196  64.310  0.00  0.00     0.045 C 
HETATM   10  C   UNK     0      62.472  73.238  65.655  0.00  0.00     0.045 C 
HETATM   11  C   UNK     0      60.951  75.804  65.061  0.00  0.00     0.171 C 
HETATM   12  C   UNK     0      61.476  76.303  63.720  0.00  0.00     0.064 C 
BRANCH   5  13
HETATM   13  O   UNK     0      63.741  75.509  63.997  0.00  0.00    -0.390 OA
HETATM   14  H   UNK     0      63.891  76.455  64.170  0.00  0.00     0.210 HD
ENDBRANCH   5  13
ENDBRANCH   4   5
ENDBRANCH   3   4
ENDBRANCH   1   3
BRANCH   1  15
HETATM   15  C   UNK     0      65.378  73.184  61.581  0.00  0.00     0.308 C 
BRANCH  15  16
HETATM   16  C   UNK     0      66.823  73.178  61.978  0.00  0.00    -0.030 A 
HETATM   17  C   UNK     0      67.419  74.351  62.432  0.00  0.00     0.011 A 
HETATM   18  C   UNK     0      68.764  74.346  62.801  0.00  0.00     0.030 A 
HETATM   19  C   UNK     0      69.507  73.168  62.713  0.00  0.00     0.029 A 
HETATM   20  C   UNK     0      68.903  71.995  62.259  0.00  0.00     0.030 A 
HETATM   21  C   UNK     0      67.559  72.001  61.889  0.00  0.00     0.011 A 
BRANCH  19  22
HETATM   22  N   UNK     0      70.866  73.162  63.088  0.00  0.00    -0.390 N 
HETATM   23  C   UNK     0      71.500  71.948  63.547  0.00  0.00     0.149 C 
HETATM   24  C   UNK     0      71.657  74.369  63.015  0.00  0.00     0.149 C 
ENDBRANCH  19  22
ENDBRANCH  15  16
ENDBRANCH   1  15
TORSDOF 7
ENDMDL
MODEL 5
REMARK VINA RESULT:      -6.7     20.303     22.396
REMARK  7 active torsions:
REMARK  status: ('A' for Active; 'I' for Inactive)
REMARK    1  A    between atoms: O_2  and  C_5 
REMARK    2  A    between atoms: N_3  and  C_13 
REMARK    3  A    between atoms: N_3  and  C_14 
REMARK    4  A    between atoms: N_4  and  C_18 
REMARK    5  A    between atoms: C_5  and  C_9 
REMARK    6  A    between atoms: C_9  and  C_13 
REMARK    7  A    between atoms: C_14  and  C_15 
ROOT
HETATM    1  N   UNK     0      64.848  75.092  61.159  0.00  0.00     0.087 N 
HETATM    2  H   UNK     0      65.032  75.252  62.149  0.00  0.00     0.316 HD
ENDROOT
BRANCH   1   3
HETATM    3  C   UNK     0      63.407  75.050  60.941  0.00  0.00     0.273 C 
BRANCH   3   4
HETATM    4  C   UNK     0      62.870  73.665  61.277  0.00  0.00     0.068 C 
BRANCH   4   5
HETATM    5  C   UNK     0      62.203  73.653  62.654  0.00  0.00     0.064 C 
HETATM    6  C   UNK     0      61.453  74.972  62.902  0.00  0.00     0.075 C 
HETATM    7  C   UNK     0      60.958  75.153  64.356  0.00  0.00     0.056 C 
HETATM    8  O   UNK     0      62.008  74.864  65.290  0.00  0.00    -0.381 OA
HETATM    9  C   UNK     0      60.604  76.632  64.574  0.00  0.00     0.045 C 
HETATM   10  C   UNK     0      59.706  74.322  64.674  0.00  0.00     0.045 C 
HETATM   11  C   UNK     0      62.619  73.586  65.141  0.00  0.00     0.171 C 
HETATM   12  C   UNK     0      63.240  73.430  63.759  0.00  0.00     0.064 C 
BRANCH   5  13
HETATM   13  O   UNK     0      61.263  72.579  62.661  0.00  0.00    -0.390 OA
HETATM   14  H   UNK     0      61.284  72.154  61.785  0.00  0.00     0.210 HD
ENDBRANCH   5  13
ENDBRANCH   4   5
ENDBRANCH   3   4
ENDBRANCH   1   3
BRANCH   1  15
HETATM   15  C   UNK     0      65.475  73.848  60.737  0.00  0.00     0.308 C 
BRANCH  15  16
HETATM   16  C   UNK     0      66.723  73.619  61.533  0.00  0.00    -0.030 A 
HETATM   17  C   UNK     0      67.331  72.367  61.517  0.00  0.00     0.011 A 
HETATM   18  C   UNK     0      68.493  72.153  62.260  0.00  0.00     0.030 A 
HETATM   19  C   UNK     0      69.040  73.191  63.014  0.00  0.00     0.029 A 
HETATM   20  C   UNK     0      68.425  74.444  63.025  0.00  0.00     0.030 A 
HETATM   21  C   UNK     0      67.264  74.657  62.284  0.00  0.00     0.011 A 
BRANCH  19  22
HETATM   22  N   UNK     0      70.215  72.975  63.763  0.00  0.00    -0.390 N 
HETATM   23  C   UNK     0      70.457  73.710  64.983  0.00  0.00     0.149 C 
HETATM   24  C   UNK     0      71.199  72.010  63.331  0.00  0.00     0.149 C 
ENDBRANCH  19  22
ENDBRANCH  15  16
ENDBRANCH   1  15
TORSDOF 7
ENDMDL
MODEL 6
REMARK VINA RESULT:      -6.7     20.792     22.740
REMARK  7 active torsions:
REMARK  status: ('A' for Active; 'I' for Inactive)
REMARK    1  A    between atoms: O_2  and  C_5 
REMARK    2  A    between atoms: N_3  and  C_13 
REMARK    3  A    between atoms: N_3  and  C_14 
REMARK    4  A    between atoms: N_4  and  C_18 
REMARK    5  A    between atoms: C_5  and  C_9 
REMARK    6  A    between atoms: C_9  and  C_13 
REMARK    7  A    between atoms: C_14  and  C_15 
ROOT
HETATM    1  N   UNK     0      64.818  73.211  60.781  0.00  0.00     0.087 N 
HETATM    2  H   UNK     0      64.379  72.824  61.616  0.00  0.00     0.316 HD
ENDROOT
BRANCH   1   3
HETATM    3  C   UNK     0      66.145  73.707  61.123  0.00  0.00     0.273 C 
BRANCH   3   4
HETATM    4  C   UNK     0      66.282  73.830  62.635  0.00  0.00     0.068 C 
BRANCH   4   5
HETATM    5  C   UNK     0      67.716  73.537  63.081  0.00  0.00     0.064 C 
HETATM    6  C   UNK     0      68.627  74.742  62.798  0.00  0.00     0.075 C 
HETATM    7  C   UNK     0      70.134  74.453  62.986  0.00  0.00     0.056 C 
HETATM    8  O   UNK     0      70.506  73.238  62.319  0.00  0.00    -0.381 OA
HETATM    9  C   UNK     0      70.939  75.567  62.298  0.00  0.00     0.045 C 
HETATM   10  C   UNK     0      70.561  74.414  64.461  0.00  0.00     0.045 C 
HETATM   11  C   UNK     0      69.743  72.090  62.679  0.00  0.00     0.171 C 
HETATM   12  C   UNK     0      68.264  72.294  62.373  0.00  0.00     0.064 C 
BRANCH   5  13
HETATM   13  O   UNK     0      67.682  73.305  64.490  0.00  0.00    -0.390 OA
HETATM   14  H   UNK     0      67.533  72.355  64.636  0.00  0.00     0.210 HD
ENDBRANCH   5  13
ENDBRANCH   4   5
ENDBRANCH   3   4
ENDBRANCH   1   3
BRANCH   1  15
HETATM   15  C   UNK     0      63.987  74.277  60.240  0.00  0.00     0.308 C 
BRANCH  15  16
HETATM   16  C   UNK     0      62.904  74.617  61.218  0.00  0.00    -0.030 A 
HETATM   17  C   UNK     0      61.746  73.846  61.260  0.00  0.00     0.011 A 
HETATM   18  C   UNK     0      60.737  74.162  62.170  0.00  0.00     0.030 A 
HETATM   19  C   UNK     0      60.892  75.247  63.033  0.00  0.00     0.029 A 
HETATM   20  C   UNK     0      62.056  76.015  62.987  0.00  0.00     0.030 A 
HETATM   21  C   UNK     0      63.063  75.700  62.077  0.00  0.00     0.011 A 
BRANCH  19  22
HETATM   22  N   UNK     0      59.873  75.566  63.955  0.00  0.00    -0.390 N 
HETATM   23  C   UNK     0      60.130  76.461  65.058  0.00  0.00     0.149 C 
HETATM   24  C   UNK     0      58.548  75.008  63.811  0.00  0.00     0.149 C 
ENDBRANCH  19  22
ENDBRANCH  15  16
ENDBRANCH   1  15
TORSDOF 7
ENDMDL
MODEL 7
REMARK VINA RESULT:      -6.6     20.384     22.472
REMARK  7 active torsions:
REMARK  status: ('A' for Active; 'I' for Inactive)
REMARK    1  A    between atoms: O_2  and  C_5 
REMARK    2  A    between atoms: N_3  and  C_13 
REMARK    3  A    between atoms: N_3  and  C_14 
REMARK    4  A    between atoms: N_4  and  C_18 
REMARK    5  A    between atoms: C_5  and  C_9 
REMARK    6  A    between atoms: C_9  and  C_13 
REMARK    7  A    between atoms: C_14  and  C_15 
ROOT
HETATM    1  N   UNK     0      64.007  74.886  61.080  0.00  0.00     0.087 N 
HETATM    2  H   UNK     0      64.738  75.581  61.230  0.00  0.00     0.316 HD
ENDROOT
BRANCH   1   3
HETATM    3  C   UNK     0      62.742  75.407  61.584  0.00  0.00     0.273 C 
BRANCH   3   4
HETATM    4  C   UNK     0      61.767  74.262  61.825  0.00  0.00     0.068 C 
BRANCH   4   5
HETATM    5  C   UNK     0      60.936  74.505  63.087  0.00  0.00     0.064 C 
HETATM    6  C   UNK     0      59.707  75.370  62.766  0.00  0.00     0.075 C 
HETATM    7  C   UNK     0      58.945  75.873  64.014  0.00  0.00     0.056 C 
HETATM    8  O   UNK     0      59.852  76.436  64.971  0.00  0.00    -0.381 OA
HETATM    9  C   UNK     0      58.017  77.024  63.593  0.00  0.00     0.045 C 
HETATM   10  C   UNK     0      58.073  74.788  64.665  0.00  0.00     0.045 C 
HETATM   11  C   UNK     0      60.923  75.584  65.367  0.00  0.00     0.171 C 
HETATM   12  C   UNK     0      61.778  75.183  64.172  0.00  0.00     0.064 C 
BRANCH   5  13
HETATM   13  O   UNK     0      60.494  73.231  63.555  0.00  0.00    -0.390 OA
HETATM   14  H   UNK     0      60.461  72.624  62.795  0.00  0.00     0.210 HD
ENDBRANCH   5  13
ENDBRANCH   4   5
ENDBRANCH   3   4
ENDBRANCH   1   3
BRANCH   1  15
HETATM   15  C   UNK     0      64.363  73.645  61.752  0.00  0.00     0.308 C 
BRANCH  15  16
HETATM   16  C   UNK     0      65.650  73.828  62.497  0.00  0.00    -0.030 A 
HETATM   17  C   UNK     0      66.706  74.504  61.894  0.00  0.00     0.011 A 
HETATM   18  C   UNK     0      67.905  74.674  62.588  0.00  0.00     0.030 A 
HETATM   19  C   UNK     0      68.041  74.167  63.880  0.00  0.00     0.029 A 
HETATM   20  C   UNK     0      66.977  73.491  64.479  0.00  0.00     0.030 A 
HETATM   21  C   UNK     0      65.781  73.320  63.786  0.00  0.00     0.011 A 
BRANCH  19  22
HETATM   22  N   UNK     0      69.252  74.340  64.582  0.00  0.00    -0.390 N 
HETATM   23  C   UNK     0      70.476  74.642  63.877  0.00  0.00     0.149 C 
HETATM   24  C   UNK     0      69.293  74.225  66.021  0.00  0.00     0.149 C 
ENDBRANCH  19  22
ENDBRANCH  15  16
ENDBRANCH   1  15
TORSDOF 7
ENDMDL
MODEL 8
REMARK VINA RESULT:      -6.5      1.893      3.424
REMARK  7 active torsions:
REMARK  status: ('A' for Active; 'I' for Inactive)
REMARK    1  A    between atoms: O_2  and  C_5 
REMARK    2  A    between atoms: N_3  and  C_13 
REMARK    3  A    between atoms: N_3  and  C_14 
REMARK    4  A    between atoms: N_4  and  C_18 
REMARK    5  A    between atoms: C_5  and  C_9 
REMARK    6  A    between atoms: C_9  and  C_13 
REMARK    7  A    between atoms: C_14  and  C_15 
ROOT
HETATM    1  N   UNK     0      54.904  53.183  67.989  0.00  0.00     0.087 N 
HETATM    2  H   UNK     0      55.799  53.645  67.829  0.00  0.00     0.316 HD
ENDROOT
BRANCH   1   3
HETATM    3  C   UNK     0      54.543  52.415  66.803  0.00  0.00     0.273 C 
BRANCH   3   4
HETATM    4  C   UNK     0      55.743  52.299  65.872  0.00  0.00     0.068 C 
BRANCH   4   5
HETATM    5  C   UNK     0      55.491  51.257  64.780  0.00  0.00     0.064 C 
HETATM    6  C   UNK     0      54.869  49.986  65.379  0.00  0.00     0.075 C 
HETATM    7  C   UNK     0      54.808  48.791  64.400  0.00  0.00     0.056 C 
HETATM    8  O   UNK     0      56.072  48.602  63.748  0.00  0.00    -0.381 OA
HETATM    9  C   UNK     0      54.560  47.506  65.206  0.00  0.00     0.045 C 
HETATM   10  C   UNK     0      53.678  48.917  63.366  0.00  0.00     0.045 C 
HETATM   11  C   UNK     0      56.589  49.750  63.081  0.00  0.00     0.171 C 
HETATM   12  C   UNK     0      56.793  50.906  64.053  0.00  0.00     0.064 C 
BRANCH   5  13
HETATM   13  O   UNK     0      54.569  51.830  63.853  0.00  0.00    -0.390 OA
HETATM   14  H   UNK     0      53.689  51.841  64.270  0.00  0.00     0.210 HD
ENDBRANCH   5  13
ENDBRANCH   4   5
ENDBRANCH   3   4
ENDBRANCH   1   3
BRANCH   1  15
HETATM   15  C   UNK     0      53.886  54.177  68.295  0.00  0.00     0.308 C 
BRANCH  15  16
HETATM   16  C   UNK     0      54.493  55.546  68.259  0.00  0.00    -0.030 A 
HETATM   17  C   UNK     0      55.851  55.706  68.519  0.00  0.00     0.011 A 
HETATM   18  C   UNK     0      56.416  56.981  68.486  0.00  0.00     0.030 A 
HETATM   19  C   UNK     0      55.621  58.089  68.195  0.00  0.00     0.029 A 
HETATM   20  C   UNK     0      54.260  57.922  67.934  0.00  0.00     0.030 A 
HETATM   21  C   UNK     0      53.696  56.649  67.968  0.00  0.00     0.011 A 
BRANCH  19  22
HETATM   22  N   UNK     0      56.193  59.378  68.160  0.00  0.00    -0.390 N 
HETATM   23  C   UNK     0      55.511  60.469  67.505  0.00  0.00     0.149 C 
HETATM   24  C   UNK     0      57.470  59.636  68.784  0.00  0.00     0.149 C 
ENDBRANCH  19  22
ENDBRANCH  15  16
ENDBRANCH   1  15
TORSDOF 7
ENDMDL
MODEL 9
REMARK VINA RESULT:      -6.5     20.241     23.128
REMARK  7 active torsions:
REMARK  status: ('A' for Active; 'I' for Inactive)
REMARK    1  A    between atoms: O_2  and  C_5 
REMARK    2  A    between atoms: N_3  and  C_13 
REMARK    3  A    between atoms: N_3  and  C_14 
REMARK    4  A    between atoms: N_4  and  C_18 
REMARK    5  A    between atoms: C_5  and  C_9 
REMARK    6  A    between atoms: C_9  and  C_13 
REMARK    7  A    between atoms: C_14  and  C_15 
ROOT
HETATM    1  N   UNK     0      66.636  74.389  62.605  0.00  0.00     0.087 N 
HETATM    2  H   UNK     0      67.282  75.137  62.858  0.00  0.00     0.316 HD
ENDROOT
BRANCH   1   3
HETATM    3  C   UNK     0      65.481  74.433  63.493  0.00  0.00     0.273 C 
BRANCH   3   4
HETATM    4  C   UNK     0      64.310  73.693  62.860  0.00  0.00     0.068 C 
BRANCH   4   5
HETATM    5  C   UNK     0      63.118  73.631  63.818  0.00  0.00     0.064 C 
HETATM    6  C   UNK     0      62.299  74.929  63.746  0.00  0.00     0.075 C 
HETATM    7  C   UNK     0      61.224  75.059  64.851  0.00  0.00     0.056 C 
HETATM    8  O   UNK     0      61.780  74.761  66.139  0.00  0.00    -0.381 OA
HETATM    9  C   UNK     0      60.770  76.526  64.924  0.00  0.00     0.045 C 
HETATM   10  C   UNK     0      59.979  74.200  64.584  0.00  0.00     0.045 C 
HETATM   11  C   UNK     0      62.430  73.497  66.241  0.00  0.00     0.171 C 
HETATM   12  C   UNK     0      63.587  73.392  65.257  0.00  0.00     0.064 C 
BRANCH   5  13
HETATM   13  O   UNK     0      62.295  72.542  63.400  0.00  0.00    -0.390 OA
HETATM   14  H   UNK     0      62.605  72.247  62.526  0.00  0.00     0.210 HD
ENDBRANCH   5  13
ENDBRANCH   4   5
ENDBRANCH   3   4
ENDBRANCH   1   3
BRANCH   1  15
HETATM   15  C   UNK     0      67.314  73.104  62.695  0.00  0.00     0.308 C 
BRANCH  15  16
HETATM   16  C   UNK     0      68.796  73.311  62.621  0.00  0.00    -0.030 A 
HETATM   17  C   UNK     0      69.316  74.601  62.674  0.00  0.00     0.011 A 
HETATM   18  C   UNK     0      70.696  74.794  62.604  0.00  0.00     0.030 A 
HETATM   19  C   UNK     0      71.548  73.697  62.481  0.00  0.00     0.029 A 
HETATM   20  C   UNK     0      71.020  72.406  62.429  0.00  0.00     0.030 A 
HETATM   21  C   UNK     0      69.642  72.213  62.498  0.00  0.00     0.011 A 
BRANCH  19  22
HETATM   22  N   UNK     0      72.943  73.891  62.411  0.00  0.00    -0.390 N 
HETATM   23  C   UNK     0      73.531  74.629  61.318  0.00  0.00     0.149 C 
HETATM   24  C   UNK     0      73.814  73.362  63.436  0.00  0.00     0.149 C 
ENDBRANCH  19  22
ENDBRANCH  15  16
ENDBRANCH   1  15
TORSDOF 7
ENDMDL
