MODEL 1
REMARK VINA RESULT:      -9.0      0.000      0.000
REMARK  3 active torsions:
REMARK  status: ('A' for Active; 'I' for Inactive)
REMARK    1  A    between atoms: S_1  and  C_16 
REMARK    2  A    between atoms: S_1  and  C_21 
REMARK       I    between atoms: N_3  and  C_11 
REMARK    3  A    between atoms: C_11  and  C_16 
ROOT
HETATM    1  O   UNK     0      62.761  75.236  62.134  0.00  0.00    -0.272 OA
HETATM    2  N   UNK     0      61.132  74.430  63.521  0.00  0.00    -0.280 N 
HETATM    3  C   UNK     0      60.286  75.553  63.525  0.00  0.00     0.053 A 
HETATM    4  C   UNK     0      60.422  73.348  64.071  0.00  0.00     0.053 A 
HETATM    5  C   UNK     0      59.075  75.189  64.116  0.00  0.00     0.004 A 
HETATM    6  C   UNK     0      59.160  73.815  64.462  0.00  0.00     0.004 A 
HETATM    7  C   UNK     0      62.462  74.456  63.031  0.00  0.00     0.238 C 
HETATM    8  C   UNK     0      60.488  76.881  63.089  0.00  0.00     0.031 A 
HETATM    9  C   UNK     0      60.737  71.983  64.246  0.00  0.00     0.031 A 
HETATM   10  C   UNK     0      58.049  76.152  64.259  0.00  0.00     0.014 A 
HETATM   11  C   UNK     0      58.237  72.931  65.068  0.00  0.00     0.014 A 
HETATM   12  C   UNK     0      59.460  77.818  63.239  0.00  0.00     0.002 A 
HETATM   13  C   UNK     0      59.807  71.125  64.845  0.00  0.00     0.002 A 
HETATM   14  C   UNK     0      58.251  77.459  63.816  0.00  0.00     0.001 A 
HETATM   15  C   UNK     0      58.572  71.592  65.258  0.00  0.00     0.001 A 
ENDROOT
BRANCH   7  16
HETATM   16  C   UNK     0      63.462  73.529  63.639  0.00  0.00     0.186 C 
BRANCH  16  17
HETATM   17  S   UNK     0      65.033  74.404  63.769  0.00  0.00    -0.081 SA
BRANCH  17  18
HETATM   18  C   UNK     0      66.175  73.216  63.065  0.00  0.00     0.191 A 
HETATM   19  N   UNK     0      66.402  73.179  61.760  0.00  0.00    -0.322 N 
HETATM   20  C   UNK     0      65.866  73.973  60.681  0.00  0.00     0.159 C 
HETATM   21  C   UNK     0      67.305  72.169  61.631  0.00  0.00     0.235 A 
HETATM   22  N   UNK     0      67.574  71.661  62.813  0.00  0.00    -0.143 NA
HETATM   23  N   UNK     0      66.828  72.357  63.743  0.00  0.00    -0.123 NA
ENDBRANCH  17  18
ENDBRANCH  16  17
ENDBRANCH   7  16
TORSDOF 3
ENDMDL
MODEL 2
REMARK VINA RESULT:      -8.2      1.232      3.603
REMARK  3 active torsions:
REMARK  status: ('A' for Active; 'I' for Inactive)
REMARK    1  A    between atoms: S_1  and  C_16 
REMARK    2  A    between atoms: S_1  and  C_21 
REMARK       I    between atoms: N_3  and  C_11 
REMARK    3  A    between atoms: C_11  and  C_16 
ROOT
HETATM    1  O   UNK     0      63.310  73.880  64.555  0.00  0.00    -0.272 OA
HETATM    2  N   UNK     0      61.204  74.608  64.043  0.00  0.00    -0.280 N 
HETATM    3  C   UNK     0      60.479  73.496  64.510  0.00  0.00     0.053 A 
HETATM    4  C   UNK     0      60.295  75.657  63.820  0.00  0.00     0.053 A 
HETATM    5  C   UNK     0      59.124  73.833  64.532  0.00  0.00     0.004 A 
HETATM    6  C   UNK     0      59.008  75.179  64.097  0.00  0.00     0.004 A 
HETATM    7  C   UNK     0      62.609  74.599  63.854  0.00  0.00     0.238 C 
HETATM    8  C   UNK     0      60.891  72.199  64.887  0.00  0.00     0.031 A 
HETATM    9  C   UNK     0      60.462  77.003  63.428  0.00  0.00     0.031 A 
HETATM   10  C   UNK     0      58.173  72.874  64.951  0.00  0.00     0.014 A 
HETATM   11  C   UNK     0      57.889  76.030  63.938  0.00  0.00     0.014 A 
HETATM   12  C   UNK     0      59.933  71.266  65.299  0.00  0.00     0.002 A 
HETATM   13  C   UNK     0      59.341  77.829  63.279  0.00  0.00     0.002 A 
HETATM   14  C   UNK     0      58.587  71.599  65.333  0.00  0.00     0.001 A 
HETATM   15  C   UNK     0      58.067  77.349  63.525  0.00  0.00     0.001 A 
ENDROOT
BRANCH   7  16
HETATM   16  C   UNK     0      63.187  75.471  62.789  0.00  0.00     0.186 C 
BRANCH  16  17
HETATM   17  S   UNK     0      63.304  74.502  61.272  0.00  0.00    -0.081 SA
BRANCH  17  18
HETATM   18  C   UNK     0      64.865  73.652  61.499  0.00  0.00     0.191 A 
HETATM   19  N   UNK     0      66.015  74.251  61.223  0.00  0.00    -0.322 N 
HETATM   20  C   UNK     0      66.299  75.575  60.727  0.00  0.00     0.159 C 
HETATM   21  C   UNK     0      66.940  73.298  61.521  0.00  0.00     0.235 A 
HETATM   22  N   UNK     0      66.336  72.211  61.946  0.00  0.00    -0.143 NA
HETATM   23  N   UNK     0      64.977  72.457  61.927  0.00  0.00    -0.123 NA
ENDBRANCH  17  18
ENDBRANCH  16  17
ENDBRANCH   7  16
TORSDOF 3
ENDMDL
MODEL 3
REMARK VINA RESULT:      -7.7      6.283     10.460
REMARK  3 active torsions:
REMARK  status: ('A' for Active; 'I' for Inactive)
REMARK    1  A    between atoms: S_1  and  C_16 
REMARK    2  A    between atoms: S_1  and  C_21 
REMARK       I    between atoms: N_3  and  C_11 
REMARK    3  A    between atoms: C_11  and  C_16 
ROOT
HETATM    1  O   UNK     0      69.836  76.984  63.860  0.00  0.00    -0.272 OA
HETATM    2  N   UNK     0      71.227  75.176  63.712  0.00  0.00    -0.280 N 
HETATM    3  C   UNK     0      71.897  75.524  62.525  0.00  0.00     0.053 A 
HETATM    4  C   UNK     0      71.943  74.132  64.326  0.00  0.00     0.053 A 
HETATM    5  C   UNK     0      72.993  74.673  62.374  0.00  0.00     0.004 A 
HETATM    6  C   UNK     0      73.020  73.801  63.493  0.00  0.00     0.004 A 
HETATM    7  C   UNK     0      70.040  75.812  64.153  0.00  0.00     0.238 C 
HETATM    8  C   UNK     0      71.617  76.498  61.542  0.00  0.00     0.031 A 
HETATM    9  C   UNK     0      71.782  73.449  65.551  0.00  0.00     0.031 A 
HETATM   10  C   UNK     0      73.829  74.805  61.240  0.00  0.00     0.014 A 
HETATM   11  C   UNK     0      73.903  72.761  63.863  0.00  0.00     0.014 A 
HETATM   12  C   UNK     0      72.457  76.612  60.429  0.00  0.00     0.002 A 
HETATM   13  C   UNK     0      72.669  72.424  65.899  0.00  0.00     0.002 A 
HETATM   14  C   UNK     0      73.553  75.776  60.278  0.00  0.00     0.001 A 
HETATM   15  C   UNK     0      73.716  72.077  65.064  0.00  0.00     0.001 A 
ENDROOT
BRANCH   7  16
HETATM   16  C   UNK     0      69.066  75.018  64.960  0.00  0.00     0.186 C 
BRANCH  16  17
HETATM   17  S   UNK     0      67.578  74.779  63.969  0.00  0.00    -0.081 SA
BRANCH  17  18
HETATM   18  C   UNK     0      67.969  73.276  63.075  0.00  0.00     0.191 A 
HETATM   19  N   UNK     0      67.331  72.962  61.957  0.00  0.00    -0.322 N 
HETATM   20  C   UNK     0      66.283  73.645  61.238  0.00  0.00     0.159 C 
HETATM   21  C   UNK     0      67.904  71.780  61.595  0.00  0.00     0.235 A 
HETATM   22  N   UNK     0      68.823  71.446  62.473  0.00  0.00    -0.143 NA
HETATM   23  N   UNK     0      68.855  72.434  63.437  0.00  0.00    -0.123 NA
ENDBRANCH  17  18
ENDBRANCH  16  17
ENDBRANCH   7  16
TORSDOF 3
ENDMDL
MODEL 4
REMARK VINA RESULT:      -7.7     19.976     22.839
REMARK  3 active torsions:
REMARK  status: ('A' for Active; 'I' for Inactive)
REMARK    1  A    between atoms: S_1  and  C_16 
REMARK    2  A    between atoms: S_1  and  C_21 
REMARK       I    between atoms: N_3  and  C_11 
REMARK    3  A    between atoms: C_11  and  C_16 
ROOT
HETATM    1  O   UNK     0      52.172  54.375  71.513  0.00  0.00    -0.272 OA
HETATM    2  N   UNK     0      54.114  55.021  70.494  0.00  0.00    -0.280 N 
HETATM    3  C   UNK     0      54.102  54.107  69.425  0.00  0.00     0.053 A 
HETATM    4  C   UNK     0      55.077  56.006  70.214  0.00  0.00     0.053 A 
HETATM    5  C   UNK     0      55.083  54.491  68.508  0.00  0.00     0.004 A 
HETATM    6  C   UNK     0      55.695  55.673  69.002  0.00  0.00     0.004 A 
HETATM    7  C   UNK     0      53.271  54.906  71.628  0.00  0.00     0.238 C 
HETATM    8  C   UNK     0      53.334  52.945  69.192  0.00  0.00     0.031 A 
HETATM    9  C   UNK     0      55.463  57.188  70.883  0.00  0.00     0.031 A 
HETATM   10  C   UNK     0      55.288  53.721  67.340  0.00  0.00     0.014 A 
HETATM   11  C   UNK     0      56.726  56.493  68.487  0.00  0.00     0.014 A 
HETATM   12  C   UNK     0      53.553  52.198  68.030  0.00  0.00     0.002 A 
HETATM   13  C   UNK     0      56.483  57.987  70.354  0.00  0.00     0.002 A 
HETATM   14  C   UNK     0      54.519  52.581  67.111  0.00  0.00     0.001 A 
HETATM   15  C   UNK     0      57.115  57.643  69.172  0.00  0.00     0.001 A 
ENDROOT
BRANCH   7  16
HETATM   16  C   UNK     0      53.762  55.433  72.935  0.00  0.00     0.186 C 
BRANCH  16  17
HETATM   17  S   UNK     0      53.953  54.041  74.066  0.00  0.00    -0.081 SA
BRANCH  17  18
HETATM   18  C   UNK     0      55.238  53.086  73.260  0.00  0.00     0.191 A 
HETATM   19  N   UNK     0      54.969  51.913  72.704  0.00  0.00    -0.322 N 
HETATM   20  C   UNK     0      53.736  51.171  72.604  0.00  0.00     0.159 C 
HETATM   21  C   UNK     0      56.176  51.521  72.211  0.00  0.00     0.235 A 
HETATM   22  N   UNK     0      57.083  52.433  72.479  0.00  0.00    -0.143 NA
HETATM   23  N   UNK     0      56.455  53.453  73.166  0.00  0.00    -0.123 NA
ENDBRANCH  17  18
ENDBRANCH  16  17
ENDBRANCH   7  16
TORSDOF 3
ENDMDL
MODEL 5
REMARK VINA RESULT:      -7.5      2.453      7.049
REMARK  3 active torsions:
REMARK  status: ('A' for Active; 'I' for Inactive)
REMARK    1  A    between atoms: S_1  and  C_16 
REMARK    2  A    between atoms: S_1  and  C_21 
REMARK       I    between atoms: N_3  and  C_11 
REMARK    3  A    between atoms: C_11  and  C_16 
ROOT
HETATM    1  O   UNK     0      63.239  73.009  65.304  0.00  0.00    -0.272 OA
HETATM    2  N   UNK     0      63.616  73.720  63.164  0.00  0.00    -0.280 N 
HETATM    3  C   UNK     0      64.988  74.006  63.277  0.00  0.00     0.053 A 
HETATM    4  C   UNK     0      63.285  73.707  61.797  0.00  0.00     0.053 A 
HETATM    5  C   UNK     0      65.500  74.219  61.996  0.00  0.00     0.004 A 
HETATM    6  C   UNK     0      64.437  74.038  61.072  0.00  0.00     0.004 A 
HETATM    7  C   UNK     0      62.772  73.492  64.279  0.00  0.00     0.238 C 
HETATM    8  C   UNK     0      65.830  74.133  64.404  0.00  0.00     0.031 A 
HETATM    9  C   UNK     0      62.094  73.410  61.101  0.00  0.00     0.031 A 
HETATM   10  C   UNK     0      66.867  74.544  61.834  0.00  0.00     0.014 A 
HETATM   11  C   UNK     0      64.385  74.117  59.661  0.00  0.00     0.014 A 
HETATM   12  C   UNK     0      67.179  74.454  64.221  0.00  0.00     0.002 A 
HETATM   13  C   UNK     0      62.064  73.492  59.704  0.00  0.00     0.002 A 
HETATM   14  C   UNK     0      67.695  74.657  62.950  0.00  0.00     0.001 A 
HETATM   15  C   UNK     0      63.194  73.847  58.988  0.00  0.00     0.001 A 
ENDROOT
BRANCH   7  16
HETATM   16  C   UNK     0      61.330  73.862  64.166  0.00  0.00     0.186 C 
BRANCH  16  17
HETATM   17  S   UNK     0      61.067  75.387  65.094  0.00  0.00    -0.081 SA
BRANCH  17  18
HETATM   18  C   UNK     0      59.852  76.229  64.080  0.00  0.00     0.191 A 
HETATM   19  N   UNK     0      58.592  75.822  64.046  0.00  0.00    -0.322 N 
HETATM   20  C   UNK     0      57.928  74.734  64.722  0.00  0.00     0.159 C 
HETATM   21  C   UNK     0      58.006  76.699  63.185  0.00  0.00     0.235 A 
HETATM   22  N   UNK     0      58.900  77.561  62.754  0.00  0.00    -0.143 NA
HETATM   23  N   UNK     0      60.105  77.241  63.348  0.00  0.00    -0.123 NA
ENDBRANCH  17  18
ENDBRANCH  16  17
ENDBRANCH   7  16
TORSDOF 3
ENDMDL
MODEL 6
REMARK VINA RESULT:      -7.4     19.513     22.097
REMARK  3 active torsions:
REMARK  status: ('A' for Active; 'I' for Inactive)
REMARK    1  A    between atoms: S_1  and  C_16 
REMARK    2  A    between atoms: S_1  and  C_21 
REMARK       I    between atoms: N_3  and  C_11 
REMARK    3  A    between atoms: C_11  and  C_16 
ROOT
HETATM    1  O   UNK     0      53.574  52.723  68.562  0.00  0.00    -0.272 OA
HETATM    2  N   UNK     0      54.120  54.939  68.427  0.00  0.00    -0.280 N 
HETATM    3  C   UNK     0      52.885  55.483  68.826  0.00  0.00     0.053 A 
HETATM    4  C   UNK     0      55.081  55.965  68.469  0.00  0.00     0.053 A 
HETATM    5  C   UNK     0      53.063  56.847  69.067  0.00  0.00     0.004 A 
HETATM    6  C   UNK     0      54.431  57.149  68.839  0.00  0.00     0.004 A 
HETATM    7  C   UNK     0      54.292  53.581  68.062  0.00  0.00     0.238 C 
HETATM    8  C   UNK     0      51.606  54.902  68.965  0.00  0.00     0.031 A 
HETATM    9  C   UNK     0      56.475  55.983  68.248  0.00  0.00     0.031 A 
HETATM   10  C   UNK     0      51.960  57.636  69.467  0.00  0.00     0.014 A 
HETATM   11  C   UNK     0      55.165  58.354  68.942  0.00  0.00     0.014 A 
HETATM   12  C   UNK     0      50.528  55.701  69.363  0.00  0.00     0.002 A 
HETATM   13  C   UNK     0      57.183  57.185  68.358  0.00  0.00     0.002 A 
HETATM   14  C   UNK     0      50.701  57.054  69.614  0.00  0.00     0.001 A 
HETATM   15  C   UNK     0      56.537  58.362  68.695  0.00  0.00     0.001 A 
ENDROOT
BRANCH   7  16
HETATM   16  C   UNK     0      55.348  53.243  67.061  0.00  0.00     0.186 C 
BRANCH  16  17
HETATM   17  S   UNK     0      55.529  51.449  67.020  0.00  0.00    -0.081 SA
BRANCH  17  18
HETATM   18  C   UNK     0      55.015  51.066  65.347  0.00  0.00     0.191 A 
HETATM   19  N   UNK     0      55.085  49.828  64.878  0.00  0.00    -0.322 N 
HETATM   20  C   UNK     0      55.536  48.604  65.495  0.00  0.00     0.159 C 
HETATM   21  C   UNK     0      54.614  49.952  63.606  0.00  0.00     0.235 A 
HETATM   22  N   UNK     0      54.293  51.204  63.372  0.00  0.00    -0.143 NA
HETATM   23  N   UNK     0      54.560  51.923  64.520  0.00  0.00    -0.123 NA
ENDBRANCH  17  18
ENDBRANCH  16  17
ENDBRANCH   7  16
TORSDOF 3
ENDMDL
MODEL 7
REMARK VINA RESULT:      -7.4      4.591      9.787
REMARK  3 active torsions:
REMARK  status: ('A' for Active; 'I' for Inactive)
REMARK    1  A    between atoms: S_1  and  C_16 
REMARK    2  A    between atoms: S_1  and  C_21 
REMARK       I    between atoms: N_3  and  C_11 
REMARK    3  A    between atoms: C_11  and  C_16 
ROOT
HETATM    1  O   UNK     0      68.226  74.486  63.770  0.00  0.00    -0.272 OA
HETATM    2  N   UNK     0      70.198  74.145  62.664  0.00  0.00    -0.280 N 
HETATM    3  C   UNK     0      70.449  75.472  62.271  0.00  0.00     0.053 A 
HETATM    4  C   UNK     0      71.376  73.402  62.469  0.00  0.00     0.053 A 
HETATM    5  C   UNK     0      71.758  75.547  61.789  0.00  0.00     0.004 A 
HETATM    6  C   UNK     0      72.334  74.255  61.907  0.00  0.00     0.004 A 
HETATM    7  C   UNK     0      68.947  73.703  63.163  0.00  0.00     0.238 C 
HETATM    8  C   UNK     0      69.627  76.620  62.263  0.00  0.00     0.031 A 
HETATM    9  C   UNK     0      71.724  72.064  62.753  0.00  0.00     0.031 A 
HETATM   10  C   UNK     0      72.257  76.780  61.311  0.00  0.00     0.014 A 
HETATM   11  C   UNK     0      73.620  73.759  61.589  0.00  0.00     0.014 A 
HETATM   12  C   UNK     0      70.141  77.830  61.786  0.00  0.00     0.002 A 
HETATM   13  C   UNK     0      73.003  71.594  62.432  0.00  0.00     0.002 A 
HETATM   14  C   UNK     0      71.443  77.913  61.316  0.00  0.00     0.001 A 
HETATM   15  C   UNK     0      73.942  72.428  61.851  0.00  0.00     0.001 A 
ENDROOT
BRANCH   7  16
HETATM   16  C   UNK     0      68.545  72.286  62.919  0.00  0.00     0.186 C 
BRANCH  16  17
HETATM   17  S   UNK     0      67.577  72.230  61.398  0.00  0.00    -0.081 SA
BRANCH  17  18
HETATM   18  C   UNK     0      65.949  72.701  61.981  0.00  0.00     0.191 A 
HETATM   19  N   UNK     0      65.233  73.615  61.341  0.00  0.00    -0.322 N 
HETATM   20  C   UNK     0      65.522  74.387  60.157  0.00  0.00     0.159 C 
HETATM   21  C   UNK     0      64.091  73.685  62.078  0.00  0.00     0.235 A 
HETATM   22  N   UNK     0      64.162  72.846  63.087  0.00  0.00    -0.143 NA
HETATM   23  N   UNK     0      65.384  72.208  63.011  0.00  0.00    -0.123 NA
ENDBRANCH  17  18
ENDBRANCH  16  17
ENDBRANCH   7  16
TORSDOF 3
ENDMDL
MODEL 8
REMARK VINA RESULT:      -7.3      4.663     10.343
REMARK  3 active torsions:
REMARK  status: ('A' for Active; 'I' for Inactive)
REMARK    1  A    between atoms: S_1  and  C_16 
REMARK    2  A    between atoms: S_1  and  C_21 
REMARK       I    between atoms: N_3  and  C_11 
REMARK    3  A    between atoms: C_11  and  C_16 
ROOT
HETATM    1  O   UNK     0      68.765  72.336  62.865  0.00  0.00    -0.272 OA
HETATM    2  N   UNK     0      70.175  74.127  62.688  0.00  0.00    -0.280 N 
HETATM    3  C   UNK     0      71.380  73.426  62.498  0.00  0.00     0.053 A 
HETATM    4  C   UNK     0      70.400  75.476  62.362  0.00  0.00     0.053 A 
HETATM    5  C   UNK     0      72.360  74.338  62.104  0.00  0.00     0.004 A 
HETATM    6  C   UNK     0      71.752  75.618  62.025  0.00  0.00     0.004 A 
HETATM    7  C   UNK     0      68.977  73.513  63.132  0.00  0.00     0.238 C 
HETATM    8  C   UNK     0      71.709  72.064  62.671  0.00  0.00     0.031 A 
HETATM    9  C   UNK     0      69.550  76.602  62.296  0.00  0.00     0.031 A 
HETATM   10  C   UNK     0      73.679  73.886  61.864  0.00  0.00     0.014 A 
HETATM   11  C   UNK     0      72.261  76.889  61.668  0.00  0.00     0.014 A 
HETATM   12  C   UNK     0      73.019  71.638  62.426  0.00  0.00     0.002 A 
HETATM   13  C   UNK     0      70.074  77.850  61.939  0.00  0.00     0.002 A 
HETATM   14  C   UNK     0      73.996  72.538  62.025  0.00  0.00     0.001 A 
HETATM   15  C   UNK     0      71.415  77.997  61.633  0.00  0.00     0.001 A 
ENDROOT
BRANCH   7  16
HETATM   16  C   UNK     0      68.012  74.330  63.926  0.00  0.00     0.186 C 
BRANCH  16  17
HETATM   17  S   UNK     0      66.570  73.307  64.284  0.00  0.00    -0.081 SA
BRANCH  17  18
HETATM   18  C   UNK     0      65.236  74.313  63.634  0.00  0.00     0.191 A 
HETATM   19  N   UNK     0      65.033  74.415  62.328  0.00  0.00    -0.322 N 
HETATM   20  C   UNK     0      65.732  73.829  61.211  0.00  0.00     0.159 C 
HETATM   21  C   UNK     0      63.956  75.244  62.247  0.00  0.00     0.235 A 
HETATM   22  N   UNK     0      63.571  75.592  63.454  0.00  0.00    -0.143 NA
HETATM   23  N   UNK     0      64.418  74.974  64.353  0.00  0.00    -0.123 NA
ENDBRANCH  17  18
ENDBRANCH  16  17
ENDBRANCH   7  16
TORSDOF 3
ENDMDL
MODEL 9
REMARK VINA RESULT:      -7.2     18.896     21.740
REMARK  3 active torsions:
REMARK  status: ('A' for Active; 'I' for Inactive)
REMARK    1  A    between atoms: S_1  and  C_16 
REMARK    2  A    between atoms: S_1  and  C_21 
REMARK       I    between atoms: N_3  and  C_11 
REMARK    3  A    between atoms: C_11  and  C_16 
ROOT
HETATM    1  O   UNK     0      55.721  53.746  67.185  0.00  0.00    -0.272 OA
HETATM    2  N   UNK     0      54.405  55.198  68.364  0.00  0.00    -0.280 N 
HETATM    3  C   UNK     0      55.305  56.275  68.446  0.00  0.00     0.053 A 
HETATM    4  C   UNK     0      53.133  55.664  68.738  0.00  0.00     0.053 A 
HETATM    5  C   UNK     0      54.611  57.393  68.914  0.00  0.00     0.004 A 
HETATM    6  C   UNK     0      53.257  57.011  69.101  0.00  0.00     0.004 A 
HETATM    7  C   UNK     0      54.786  53.892  67.964  0.00  0.00     0.238 C 
HETATM    8  C   UNK     0      56.690  56.363  68.182  0.00  0.00     0.031 A 
HETATM    9  C   UNK     0      51.859  55.055  68.772  0.00  0.00     0.031 A 
HETATM   10  C   UNK     0      55.299  58.614  69.103  0.00  0.00     0.014 A 
HETATM   11  C   UNK     0      52.122  57.731  69.541  0.00  0.00     0.014 A 
HETATM   12  C   UNK     0      57.350  57.581  68.375  0.00  0.00     0.002 A 
HETATM   13  C   UNK     0      50.749  55.787  69.207  0.00  0.00     0.002 A 
HETATM   14  C   UNK     0      56.664  58.697  68.829  0.00  0.00     0.001 A 
HETATM   15  C   UNK     0      50.875  57.109  69.594  0.00  0.00     0.001 A 
ENDROOT
BRANCH   7  16
HETATM   16  C   UNK     0      54.032  52.730  68.521  0.00  0.00     0.186 C 
BRANCH  16  17
HETATM   17  S   UNK     0      54.765  52.293  70.110  0.00  0.00    -0.081 SA
BRANCH  17  18
HETATM   18  C   UNK     0      53.680  53.136  71.260  0.00  0.00     0.191 A 
HETATM   19  N   UNK     0      54.084  54.217  71.912  0.00  0.00    -0.322 N 
HETATM   20  C   UNK     0      55.341  54.925  71.886  0.00  0.00     0.159 C 
HETATM   21  C   UNK     0      52.999  54.549  72.664  0.00  0.00     0.235 A 
HETATM   22  N   UNK     0      52.028  53.691  72.444  0.00  0.00    -0.143 NA
HETATM   23  N   UNK     0      52.487  52.771  71.522  0.00  0.00    -0.123 NA
ENDBRANCH  17  18
ENDBRANCH  16  17
ENDBRANCH   7  16
TORSDOF 3
ENDMDL
