MODEL 1
REMARK VINA RESULT:      -9.3      0.000      0.000
REMARK  6 active torsions:
REMARK  status: ('A' for Active; 'I' for Inactive)
REMARK    1  A    between atoms: S_1  and  C_16 
REMARK    2  A    between atoms: S_1  and  C_17 
REMARK       I    between atoms: N_6  and  C_15 
REMARK    3  A    between atoms: N_10  and  C_23 
REMARK       I    between atoms: N_10  and  C_26 
REMARK    4  A    between atoms: C_15  and  C_16 
REMARK    5  A    between atoms: C_18  and  C_19 
REMARK    6  A    between atoms: C_26  and  C_27 
ROOT
HETATM    1  C   UNK     0      66.573  73.417  62.883  0.00  0.00     0.012 A 
HETATM    2  C   UNK     0      65.827  73.650  61.729  0.00  0.00     0.017 A 
HETATM    3  C   UNK     0      66.056  73.762  64.131  0.00  0.00     0.017 A 
HETATM    4  C   UNK     0      64.041  74.572  63.070  0.00  0.00     0.035 A 
HETATM    5  C   UNK     0      64.560  74.227  61.823  0.00  0.00     0.030 A 
HETATM    6  C   UNK     0      64.789  74.340  64.225  0.00  0.00     0.030 A 
ENDROOT
BRANCH   1   7
HETATM    7  C   UNK     0      67.884  72.822  62.787  0.00  0.00     0.164 A 
HETATM    8  N   UNK     0      69.035  73.531  62.625  0.00  0.00    -0.312 N 
HETATM    9  C   UNK     0      69.990  72.597  62.588  0.00  0.00     0.191 A 
HETATM   10  C   UNK     0      69.156  74.969  62.523  0.00  0.00     0.160 C 
HETATM   11  N   UNK     0      69.527  71.401  62.710  0.00  0.00    -0.122 NA
HETATM   12  N   UNK     0      68.159  71.539  62.840  0.00  0.00    -0.128 NA
BRANCH   9  13
HETATM   13  S   UNK     0      71.699  73.010  62.389  0.00  0.00    -0.081 SA
BRANCH  13  14
HETATM   14  C   UNK     0      72.256  72.913  64.097  0.00  0.00     0.185 C 
BRANCH  14  15
HETATM   15  C   UNK     0      72.407  74.322  64.612  0.00  0.00     0.229 C 
HETATM   16  O   UNK     0      73.329  75.024  64.190  0.00  0.00    -0.273 OA
HETATM   17  N   UNK     0      71.467  74.745  65.549  0.00  0.00    -0.347 N 
HETATM   18  C   UNK     0      71.616  76.049  66.196  0.00  0.00     0.152 C 
HETATM   19  C   UNK     0      70.362  73.936  66.071  0.00  0.00     0.152 C 
HETATM   20  C   UNK     0      70.282  76.782  66.223  0.00  0.00     0.187 C 
HETATM   21  O   UNK     0      69.283  75.968  66.842  0.00  0.00    -0.388 OA
HETATM   22  C   UNK     0      69.079  74.758  66.107  0.00  0.00     0.187 C 
ENDBRANCH  14  15
ENDBRANCH  13  14
ENDBRANCH   9  13
ENDBRANCH   1   7
BRANCH   4  23
HETATM   23  N   UNK     0      62.774  75.148  63.163  0.00  0.00    -0.323 N 
HETATM   24  C   UNK     0      61.588  74.555  63.615  0.00  0.00     0.259 C 
HETATM   25  O   UNK     0      61.447  73.406  64.016  0.00  0.00    -0.267 OA
HETATM   26  H   UNK     0      62.747  76.129  62.897  0.00  0.00     0.169 HD
BRANCH  24  27
HETATM   27  C   UNK     0      60.383  75.425  63.569  0.00  0.00     0.070 A 
HETATM   28  C   UNK     0      60.230  76.408  64.523  0.00  0.00     0.132 A 
HETATM   29  F   UNK     0      61.140  76.598  65.490  0.00  0.00    -0.205 F 
HETATM   30  C   UNK     0      59.099  77.222  64.476  0.00  0.00     0.043 A 
HETATM   31  C   UNK     0      58.146  77.034  63.476  0.00  0.00     0.003 A 
HETATM   32  C   UNK     0      58.324  76.033  62.522  0.00  0.00     0.001 A 
HETATM   33  C   UNK     0      59.456  75.218  62.569  0.00  0.00     0.020 A 
ENDBRANCH  24  27
ENDBRANCH   4  23
TORSDOF 6
ENDMDL
MODEL 2
REMARK VINA RESULT:      -9.1      2.707      3.648
REMARK  6 active torsions:
REMARK  status: ('A' for Active; 'I' for Inactive)
REMARK    1  A    between atoms: S_1  and  C_16 
REMARK    2  A    between atoms: S_1  and  C_17 
REMARK       I    between atoms: N_6  and  C_15 
REMARK    3  A    between atoms: N_10  and  C_23 
REMARK       I    between atoms: N_10  and  C_26 
REMARK    4  A    between atoms: C_15  and  C_16 
REMARK    5  A    between atoms: C_18  and  C_19 
REMARK    6  A    between atoms: C_26  and  C_27 
ROOT
HETATM    1  C   UNK     0      66.272  73.381  63.318  0.00  0.00     0.012 A 
HETATM    2  C   UNK     0      65.490  72.977  64.399  0.00  0.00     0.017 A 
HETATM    3  C   UNK     0      65.760  74.280  62.383  0.00  0.00     0.017 A 
HETATM    4  C   UNK     0      63.681  74.372  63.611  0.00  0.00     0.035 A 
HETATM    5  C   UNK     0      64.193  73.474  64.545  0.00  0.00     0.030 A 
HETATM    6  C   UNK     0      64.464  74.776  62.529  0.00  0.00     0.030 A 
ENDROOT
BRANCH   1   7
HETATM    7  C   UNK     0      67.611  72.867  63.166  0.00  0.00     0.164 A 
HETATM    8  N   UNK     0      68.736  73.551  63.512  0.00  0.00    -0.312 N 
HETATM    9  C   UNK     0      69.733  72.713  63.207  0.00  0.00     0.191 A 
HETATM   10  C   UNK     0      68.799  74.880  64.079  0.00  0.00     0.160 C 
HETATM   11  N   UNK     0      69.317  71.599  62.713  0.00  0.00    -0.122 NA
HETATM   12  N   UNK     0      67.940  71.690  62.683  0.00  0.00    -0.128 NA
BRANCH   9  13
HETATM   13  S   UNK     0      71.429  73.139  63.473  0.00  0.00    -0.081 SA
BRANCH  13  14
HETATM   14  C   UNK     0      71.567  74.595  62.425  0.00  0.00     0.185 C 
BRANCH  14  15
HETATM   15  C   UNK     0      72.857  74.484  61.654  0.00  0.00     0.229 C 
HETATM   16  O   UNK     0      73.545  73.467  61.769  0.00  0.00    -0.273 OA
HETATM   17  N   UNK     0      73.189  75.565  60.839  0.00  0.00    -0.347 N 
HETATM   18  C   UNK     0      74.484  75.597  60.159  0.00  0.00     0.152 C 
HETATM   19  C   UNK     0      72.395  76.787  60.681  0.00  0.00     0.152 C 
HETATM   20  C   UNK     0      74.309  76.030  58.710  0.00  0.00     0.187 C 
HETATM   21  O   UNK     0      73.621  77.281  58.646  0.00  0.00    -0.388 OA
HETATM   22  C   UNK     0      72.310  77.173  59.210  0.00  0.00     0.187 C 
ENDBRANCH  14  15
ENDBRANCH  13  14
ENDBRANCH   9  13
ENDBRANCH   1   7
BRANCH   4  23
HETATM   23  N   UNK     0      62.386  74.869  63.758  0.00  0.00    -0.323 N 
HETATM   24  C   UNK     0      61.306  74.738  62.874  0.00  0.00     0.259 C 
HETATM   25  O   UNK     0      61.305  74.154  61.797  0.00  0.00    -0.267 OA
HETATM   26  H   UNK     0      62.226  75.351  64.639  0.00  0.00     0.169 HD
BRANCH  24  27
HETATM   27  C   UNK     0      60.050  75.407  63.300  0.00  0.00     0.070 A 
HETATM   28  C   UNK     0      59.120  74.690  64.022  0.00  0.00     0.132 A 
HETATM   29  F   UNK     0      59.321  73.404  64.347  0.00  0.00    -0.205 F 
HETATM   30  C   UNK     0      57.942  75.322  64.421  0.00  0.00     0.043 A 
HETATM   31  C   UNK     0      57.721  76.658  64.087  0.00  0.00     0.003 A 
HETATM   32  C   UNK     0      58.677  77.362  63.357  0.00  0.00     0.001 A 
HETATM   33  C   UNK     0      59.856  76.730  62.958  0.00  0.00     0.020 A 
ENDBRANCH  24  27
ENDBRANCH   4  23
TORSDOF 6
ENDMDL
MODEL 3
REMARK VINA RESULT:      -8.2      5.126     10.785
REMARK  6 active torsions:
REMARK  status: ('A' for Active; 'I' for Inactive)
REMARK    1  A    between atoms: S_1  and  C_16 
REMARK    2  A    between atoms: S_1  and  C_17 
REMARK       I    between atoms: N_6  and  C_15 
REMARK    3  A    between atoms: N_10  and  C_23 
REMARK       I    between atoms: N_10  and  C_26 
REMARK    4  A    between atoms: C_15  and  C_16 
REMARK    5  A    between atoms: C_18  and  C_19 
REMARK    6  A    between atoms: C_26  and  C_27 
ROOT
HETATM    1  C   UNK     0      70.127  74.538  62.922  0.00  0.00     0.012 A 
HETATM    2  C   UNK     0      70.150  75.875  62.525  0.00  0.00     0.017 A 
HETATM    3  C   UNK     0      71.158  73.679  62.543  0.00  0.00     0.017 A 
HETATM    4  C   UNK     0      72.238  75.495  61.370  0.00  0.00     0.035 A 
HETATM    5  C   UNK     0      71.207  76.353  61.749  0.00  0.00     0.030 A 
HETATM    6  C   UNK     0      72.215  74.158  61.767  0.00  0.00     0.030 A 
ENDROOT
BRANCH   1   7
HETATM    7  C   UNK     0      69.034  74.042  63.722  0.00  0.00     0.164 A 
HETATM    8  N   UNK     0      67.868  73.563  63.209  0.00  0.00    -0.312 N 
HETATM    9  C   UNK     0      67.156  73.218  64.287  0.00  0.00     0.191 A 
HETATM   10  C   UNK     0      67.516  73.464  61.810  0.00  0.00     0.160 C 
HETATM   11  N   UNK     0      67.778  73.444  65.392  0.00  0.00    -0.122 NA
HETATM   12  N   UNK     0      68.999  73.979  65.034  0.00  0.00    -0.128 NA
BRANCH   9  13
HETATM   13  S   UNK     0      65.532  72.528  64.157  0.00  0.00    -0.081 SA
BRANCH  13  14
HETATM   14  C   UNK     0      64.534  74.020  64.276  0.00  0.00     0.185 C 
BRANCH  14  15
HETATM   15  C   UNK     0      63.221  73.644  64.913  0.00  0.00     0.229 C 
HETATM   16  O   UNK     0      63.208  73.236  66.078  0.00  0.00    -0.273 OA
HETATM   17  N   UNK     0      62.082  73.791  64.124  0.00  0.00    -0.347 N 
HETATM   18  C   UNK     0      60.785  73.327  64.617  0.00  0.00     0.152 C 
HETATM   19  C   UNK     0      62.063  74.271  62.739  0.00  0.00     0.152 C 
HETATM   20  C   UNK     0      59.712  74.372  64.347  0.00  0.00     0.187 C 
HETATM   21  O   UNK     0      59.686  74.707  62.958  0.00  0.00    -0.388 OA
HETATM   22  C   UNK     0      60.933  75.275  62.545  0.00  0.00     0.187 C 
ENDBRANCH  14  15
ENDBRANCH  13  14
ENDBRANCH   9  13
ENDBRANCH   1   7
BRANCH   4  23
HETATM   23  N   UNK     0      73.295  75.974  60.595  0.00  0.00    -0.323 N 
HETATM   24  C   UNK     0      73.231  76.601  59.344  0.00  0.00     0.259 C 
HETATM   25  O   UNK     0      72.221  76.846  58.695  0.00  0.00    -0.267 OA
HETATM   26  H   UNK     0      74.206  75.873  61.033  0.00  0.00     0.169 HD
BRANCH  24  27
HETATM   27  C   UNK     0      74.542  76.976  58.753  0.00  0.00     0.070 A 
HETATM   28  C   UNK     0      75.263  76.025  58.062  0.00  0.00     0.132 A 
HETATM   29  F   UNK     0      74.810  74.772  57.912  0.00  0.00    -0.205 F 
HETATM   30  C   UNK     0      76.492  76.381  57.508  0.00  0.00     0.043 A 
HETATM   31  C   UNK     0      76.974  77.681  57.658  0.00  0.00     0.003 A 
HETATM   32  C   UNK     0      76.226  78.625  58.360  0.00  0.00     0.001 A 
HETATM   33  C   UNK     0      74.996  78.269  58.915  0.00  0.00     0.020 A 
ENDBRANCH  24  27
ENDBRANCH   4  23
TORSDOF 6
ENDMDL
MODEL 4
REMARK VINA RESULT:      -8.1     23.027     24.878
REMARK  6 active torsions:
REMARK  status: ('A' for Active; 'I' for Inactive)
REMARK    1  A    between atoms: S_1  and  C_16 
REMARK    2  A    between atoms: S_1  and  C_17 
REMARK       I    between atoms: N_6  and  C_15 
REMARK    3  A    between atoms: N_10  and  C_23 
REMARK       I    between atoms: N_10  and  C_26 
REMARK    4  A    between atoms: C_15  and  C_16 
REMARK    5  A    between atoms: C_18  and  C_19 
REMARK    6  A    between atoms: C_26  and  C_27 
ROOT
HETATM    1  C   UNK     0      55.355  53.975  70.369  0.00  0.00     0.012 A 
HETATM    2  C   UNK     0      55.087  53.933  69.002  0.00  0.00     0.017 A 
HETATM    3  C   UNK     0      55.601  55.196  70.996  0.00  0.00     0.017 A 
HETATM    4  C   UNK     0      55.309  56.337  68.885  0.00  0.00     0.035 A 
HETATM    5  C   UNK     0      55.063  55.115  68.260  0.00  0.00     0.030 A 
HETATM    6  C   UNK     0      55.578  56.378  70.254  0.00  0.00     0.030 A 
ENDROOT
BRANCH   1   7
HETATM    7  C   UNK     0      55.380  52.754  71.136  0.00  0.00     0.164 A 
HETATM    8  N   UNK     0      54.387  51.823  71.125  0.00  0.00    -0.312 N 
HETATM    9  C   UNK     0      54.820  50.874  71.962  0.00  0.00     0.191 A 
HETATM   10  C   UNK     0      53.157  51.883  70.366  0.00  0.00     0.160 C 
HETATM   11  N   UNK     0      55.971  51.144  72.472  0.00  0.00    -0.122 NA
HETATM   12  N   UNK     0      56.343  52.363  71.941  0.00  0.00    -0.128 NA
BRANCH   9  13
HETATM   13  S   UNK     0      53.873  49.419  72.299  0.00  0.00    -0.081 SA
BRANCH  13  14
HETATM   14  C   UNK     0      54.330  48.400  70.888  0.00  0.00     0.185 C 
BRANCH  14  15
HETATM   15  C   UNK     0      55.728  47.887  71.127  0.00  0.00     0.229 C 
HETATM   16  O   UNK     0      55.933  47.100  72.054  0.00  0.00    -0.273 OA
HETATM   17  N   UNK     0      56.715  48.345  70.258  0.00  0.00    -0.347 N 
HETATM   18  C   UNK     0      58.117  48.002  70.496  0.00  0.00     0.152 C 
HETATM   19  C   UNK     0      56.505  49.280  69.147  0.00  0.00     0.152 C 
HETATM   20  C   UNK     0      58.785  47.569  69.199  0.00  0.00     0.187 C 
HETATM   21  O   UNK     0      58.627  48.580  68.200  0.00  0.00    -0.388 OA
HETATM   22  C   UNK     0      57.243  48.797  67.905  0.00  0.00     0.187 C 
ENDBRANCH  14  15
ENDBRANCH  13  14
ENDBRANCH   9  13
ENDBRANCH   1   7
BRANCH   4  23
HETATM   23  N   UNK     0      55.285  57.517  68.143  0.00  0.00    -0.323 N 
HETATM   24  C   UNK     0      54.193  58.360  67.898  0.00  0.00     0.259 C 
HETATM   25  O   UNK     0      53.044  58.209  68.297  0.00  0.00    -0.267 OA
HETATM   26  H   UNK     0      56.193  57.793  67.777  0.00  0.00     0.169 HD
BRANCH  24  27
HETATM   27  C   UNK     0      54.479  59.540  67.040  0.00  0.00     0.070 A 
HETATM   28  C   UNK     0      55.261  60.558  67.541  0.00  0.00     0.132 A 
HETATM   29  F   UNK     0      55.769  60.511  68.781  0.00  0.00    -0.205 F 
HETATM   30  C   UNK     0      55.527  61.663  66.732  0.00  0.00     0.043 A 
HETATM   31  C   UNK     0      55.004  61.724  65.441  0.00  0.00     0.003 A 
HETATM   32  C   UNK     0      54.215  60.681  64.958  0.00  0.00     0.001 A 
HETATM   33  C   UNK     0      53.949  59.575  65.766  0.00  0.00     0.020 A 
ENDBRANCH  24  27
ENDBRANCH   4  23
TORSDOF 6
ENDMDL
MODEL 5
REMARK VINA RESULT:      -8.0     22.805     24.906
REMARK  6 active torsions:
REMARK  status: ('A' for Active; 'I' for Inactive)
REMARK    1  A    between atoms: S_1  and  C_16 
REMARK    2  A    between atoms: S_1  and  C_17 
REMARK       I    between atoms: N_6  and  C_15 
REMARK    3  A    between atoms: N_10  and  C_23 
REMARK       I    between atoms: N_10  and  C_26 
REMARK    4  A    between atoms: C_15  and  C_16 
REMARK    5  A    between atoms: C_18  and  C_19 
REMARK    6  A    between atoms: C_26  and  C_27 
ROOT
HETATM    1  C   UNK     0      55.214  53.986  70.396  0.00  0.00     0.012 A 
HETATM    2  C   UNK     0      55.219  55.220  71.044  0.00  0.00     0.017 A 
HETATM    3  C   UNK     0      55.212  53.927  69.003  0.00  0.00     0.017 A 
HETATM    4  C   UNK     0      55.223  56.342  68.903  0.00  0.00     0.035 A 
HETATM    5  C   UNK     0      55.224  56.399  70.296  0.00  0.00     0.030 A 
HETATM    6  C   UNK     0      55.217  55.106  68.256  0.00  0.00     0.030 A 
ENDROOT
BRANCH   1   7
HETATM    7  C   UNK     0      55.206  52.767  71.168  0.00  0.00     0.164 A 
HETATM    8  N   UNK     0      54.208  51.842  71.126  0.00  0.00    -0.312 N 
HETATM    9  C   UNK     0      54.607  50.894  71.980  0.00  0.00     0.191 A 
HETATM   10  C   UNK     0      53.006  51.905  70.325  0.00  0.00     0.160 C 
HETATM   11  N   UNK     0      55.742  51.159  72.529  0.00  0.00    -0.122 NA
HETATM   12  N   UNK     0      56.138  52.374  72.006  0.00  0.00    -0.128 NA
BRANCH   9  13
HETATM   13  S   UNK     0      53.641  49.444  72.290  0.00  0.00    -0.081 SA
BRANCH  13  14
HETATM   14  C   UNK     0      52.190  50.180  73.058  0.00  0.00     0.185 C 
BRANCH  14  15
HETATM   15  C   UNK     0      52.546  50.515  74.484  0.00  0.00     0.229 C 
HETATM   16  O   UNK     0      52.819  49.603  75.269  0.00  0.00    -0.273 OA
HETATM   17  N   UNK     0      52.548  51.866  74.824  0.00  0.00    -0.347 N 
HETATM   18  C   UNK     0      52.754  52.271  76.214  0.00  0.00     0.152 C 
HETATM   19  C   UNK     0      52.229  52.972  73.915  0.00  0.00     0.152 C 
HETATM   20  C   UNK     0      53.741  53.427  76.288  0.00  0.00     0.187 C 
HETATM   21  O   UNK     0      53.303  54.506  75.459  0.00  0.00    -0.388 OA
HETATM   22  C   UNK     0      53.236  54.102  74.087  0.00  0.00     0.187 C 
ENDBRANCH  14  15
ENDBRANCH  13  14
ENDBRANCH   9  13
ENDBRANCH   1   7
BRANCH   4  23
HETATM   23  N   UNK     0      55.229  57.520  68.157  0.00  0.00    -0.323 N 
HETATM   24  C   UNK     0      54.156  58.384  67.900  0.00  0.00     0.259 C 
HETATM   25  O   UNK     0      53.002  58.259  68.291  0.00  0.00    -0.267 OA
HETATM   26  H   UNK     0      56.145  57.776  67.797  0.00  0.00     0.169 HD
BRANCH  24  27
HETATM   27  C   UNK     0      54.472  59.554  67.040  0.00  0.00     0.070 A 
HETATM   28  C   UNK     0      55.284  60.552  67.538  0.00  0.00     0.132 A 
HETATM   29  F   UNK     0      55.793  60.491  68.777  0.00  0.00    -0.205 F 
HETATM   30  C   UNK     0      55.579  61.648  66.728  0.00  0.00     0.043 A 
HETATM   31  C   UNK     0      55.055  61.722  65.438  0.00  0.00     0.003 A 
HETATM   32  C   UNK     0      54.237  60.700  64.957  0.00  0.00     0.001 A 
HETATM   33  C   UNK     0      53.942  59.603  65.768  0.00  0.00     0.020 A 
ENDBRANCH  24  27
ENDBRANCH   4  23
TORSDOF 6
ENDMDL
MODEL 6
REMARK VINA RESULT:      -7.9     23.187     25.472
REMARK  6 active torsions:
REMARK  status: ('A' for Active; 'I' for Inactive)
REMARK    1  A    between atoms: S_1  and  C_16 
REMARK    2  A    between atoms: S_1  and  C_17 
REMARK       I    between atoms: N_6  and  C_15 
REMARK    3  A    between atoms: N_10  and  C_23 
REMARK       I    between atoms: N_10  and  C_26 
REMARK    4  A    between atoms: C_15  and  C_16 
REMARK    5  A    between atoms: C_18  and  C_19 
REMARK    6  A    between atoms: C_26  and  C_27 
ROOT
HETATM    1  C   UNK     0      55.175  53.816  70.317  0.00  0.00     0.012 A 
HETATM    2  C   UNK     0      55.052  53.788  68.929  0.00  0.00     0.017 A 
HETATM    3  C   UNK     0      55.312  55.034  70.982  0.00  0.00     0.017 A 
HETATM    4  C   UNK     0      55.200  56.199  68.868  0.00  0.00     0.035 A 
HETATM    5  C   UNK     0      55.064  54.980  68.204  0.00  0.00     0.030 A 
HETATM    6  C   UNK     0      55.323  56.226  70.258  0.00  0.00     0.030 A 
ENDROOT
BRANCH   1   7
HETATM    7  C   UNK     0      55.165  52.583  71.067  0.00  0.00     0.164 A 
HETATM    8  N   UNK     0      54.033  51.927  71.444  0.00  0.00    -0.312 N 
HETATM    9  C   UNK     0      54.483  50.855  72.103  0.00  0.00     0.191 A 
HETATM   10  C   UNK     0      52.671  52.331  71.173  0.00  0.00     0.160 C 
HETATM   11  N   UNK     0      55.769  50.803  72.159  0.00  0.00    -0.122 NA
HETATM   12  N   UNK     0      56.220  51.922  71.488  0.00  0.00    -0.128 NA
BRANCH   9  13
HETATM   13  S   UNK     0      53.386  49.659  72.807  0.00  0.00    -0.081 SA
BRANCH  13  14
HETATM   14  C   UNK     0      53.500  48.350  71.578  0.00  0.00     0.185 C 
BRANCH  14  15
HETATM   15  C   UNK     0      52.263  48.420  70.718  0.00  0.00     0.229 C 
HETATM   16  O   UNK     0      51.172  48.109  71.202  0.00  0.00    -0.273 OA
HETATM   17  N   UNK     0      52.443  48.846  69.404  0.00  0.00    -0.347 N 
HETATM   18  C   UNK     0      51.322  48.818  68.466  0.00  0.00     0.152 C 
HETATM   19  C   UNK     0      53.725  49.222  68.799  0.00  0.00     0.152 C 
HETATM   20  C   UNK     0      51.265  50.114  67.669  0.00  0.00     0.187 C 
HETATM   21  O   UNK     0      52.519  50.353  67.024  0.00  0.00    -0.388 OA
HETATM   22  C   UNK     0      53.569  50.500  67.984  0.00  0.00     0.187 C 
ENDBRANCH  14  15
ENDBRANCH  13  14
ENDBRANCH   9  13
ENDBRANCH   1   7
BRANCH   4  23
HETATM   23  N   UNK     0      55.210  57.390  68.143  0.00  0.00    -0.323 N 
HETATM   24  C   UNK     0      54.156  58.294  67.953  0.00  0.00     0.259 C 
HETATM   25  O   UNK     0      53.018  58.199  68.396  0.00  0.00    -0.267 OA
HETATM   26  H   UNK     0      56.116  57.623  67.745  0.00  0.00     0.169 HD
BRANCH  24  27
HETATM   27  C   UNK     0      54.471  59.470  67.100  0.00  0.00     0.070 A 
HETATM   28  C   UNK     0      55.285  60.463  67.602  0.00  0.00     0.132 A 
HETATM   29  F   UNK     0      55.797  60.394  68.839  0.00  0.00    -0.205 F 
HETATM   30  C   UNK     0      55.578  61.564  66.798  0.00  0.00     0.043 A 
HETATM   31  C   UNK     0      55.050  61.647  65.510  0.00  0.00     0.003 A 
HETATM   32  C   UNK     0      54.231  60.629  65.025  0.00  0.00     0.001 A 
HETATM   33  C   UNK     0      53.937  59.527  65.829  0.00  0.00     0.020 A 
ENDBRANCH  24  27
ENDBRANCH   4  23
TORSDOF 6
ENDMDL
MODEL 7
REMARK VINA RESULT:      -7.8      6.702     11.151
REMARK  6 active torsions:
REMARK  status: ('A' for Active; 'I' for Inactive)
REMARK    1  A    between atoms: S_1  and  C_16 
REMARK    2  A    between atoms: S_1  and  C_17 
REMARK       I    between atoms: N_6  and  C_15 
REMARK    3  A    between atoms: N_10  and  C_23 
REMARK       I    between atoms: N_10  and  C_26 
REMARK    4  A    between atoms: C_15  and  C_16 
REMARK    5  A    between atoms: C_18  and  C_19 
REMARK    6  A    between atoms: C_26  and  C_27 
ROOT
HETATM    1  C   UNK     0      72.721  77.136  61.999  0.00  0.00     0.012 A 
HETATM    2  C   UNK     0      73.328  76.018  61.429  0.00  0.00     0.017 A 
HETATM    3  C   UNK     0      72.791  78.373  61.359  0.00  0.00     0.017 A 
HETATM    4  C   UNK     0      74.075  77.373  59.572  0.00  0.00     0.035 A 
HETATM    5  C   UNK     0      74.005  76.137  60.214  0.00  0.00     0.030 A 
HETATM    6  C   UNK     0      73.468  78.492  60.144  0.00  0.00     0.030 A 
ENDROOT
BRANCH   1   7
HETATM    7  C   UNK     0      72.022  77.015  63.256  0.00  0.00     0.164 A 
HETATM    8  N   UNK     0      70.734  76.591  63.376  0.00  0.00    -0.312 N 
HETATM    9  C   UNK     0      70.500  76.630  64.691  0.00  0.00     0.191 A 
HETATM   10  C   UNK     0      69.851  76.197  62.300  0.00  0.00     0.160 C 
HETATM   11  N   UNK     0      71.518  77.034  65.370  0.00  0.00    -0.122 NA
HETATM   12  N   UNK     0      72.511  77.286  64.445  0.00  0.00    -0.128 NA
BRANCH   9  13
HETATM   13  S   UNK     0      68.938  76.164  65.380  0.00  0.00    -0.081 SA
BRANCH  13  14
HETATM   14  C   UNK     0      69.337  74.526  66.010  0.00  0.00     0.185 C 
BRANCH  14  15
HETATM   15  C   UNK     0      69.593  73.629  64.826  0.00  0.00     0.229 C 
HETATM   16  O   UNK     0      68.668  73.372  64.051  0.00  0.00    -0.273 OA
HETATM   17  N   UNK     0      70.890  73.143  64.682  0.00  0.00    -0.347 N 
HETATM   18  C   UNK     0      71.194  72.164  63.639  0.00  0.00     0.152 C 
HETATM   19  C   UNK     0      72.010  73.428  65.585  0.00  0.00     0.152 C 
HETATM   20  C   UNK     0      72.480  72.541  62.917  0.00  0.00     0.187 C 
HETATM   21  O   UNK     0      73.547  72.696  63.856  0.00  0.00    -0.388 OA
HETATM   22  C   UNK     0      73.265  73.749  64.783  0.00  0.00     0.187 C 
ENDBRANCH  14  15
ENDBRANCH  13  14
ENDBRANCH   9  13
ENDBRANCH   1   7
BRANCH   4  23
HETATM   23  N   UNK     0      74.752  77.491  58.358  0.00  0.00    -0.323 N 
HETATM   24  C   UNK     0      74.391  76.955  57.115  0.00  0.00     0.259 C 
HETATM   25  O   UNK     0      73.402  76.276  56.866  0.00  0.00    -0.267 OA
HETATM   26  H   UNK     0      75.585  78.071  58.405  0.00  0.00     0.169 HD
BRANCH  24  27
HETATM   27  C   UNK     0      75.338  77.232  56.003  0.00  0.00     0.070 A 
HETATM   28  C   UNK     0      76.495  76.487  55.906  0.00  0.00     0.132 A 
HETATM   29  F   UNK     0      76.785  75.521  56.790  0.00  0.00    -0.205 F 
HETATM   30  C   UNK     0      77.380  76.750  54.862  0.00  0.00     0.043 A 
HETATM   31  C   UNK     0      77.089  77.754  53.937  0.00  0.00     0.003 A 
HETATM   32  C   UNK     0      75.913  78.493  54.057  0.00  0.00     0.001 A 
HETATM   33  C   UNK     0      75.027  78.230  55.102  0.00  0.00     0.020 A 
ENDBRANCH  24  27
ENDBRANCH   4  23
TORSDOF 6
ENDMDL
MODEL 8
REMARK VINA RESULT:      -7.7      3.543     10.194
REMARK  6 active torsions:
REMARK  status: ('A' for Active; 'I' for Inactive)
REMARK    1  A    between atoms: S_1  and  C_16 
REMARK    2  A    between atoms: S_1  and  C_17 
REMARK       I    between atoms: N_6  and  C_15 
REMARK    3  A    between atoms: N_10  and  C_23 
REMARK       I    between atoms: N_10  and  C_26 
REMARK    4  A    between atoms: C_15  and  C_16 
REMARK    5  A    between atoms: C_18  and  C_19 
REMARK    6  A    between atoms: C_26  and  C_27 
ROOT
HETATM    1  C   UNK     0      65.705  73.285  62.728  0.00  0.00     0.012 A 
HETATM    2  C   UNK     0      66.378  74.406  63.211  0.00  0.00     0.017 A 
HETATM    3  C   UNK     0      66.422  72.160  62.324  0.00  0.00     0.017 A 
HETATM    4  C   UNK     0      68.490  73.277  62.888  0.00  0.00     0.035 A 
HETATM    5  C   UNK     0      67.772  74.401  63.291  0.00  0.00     0.030 A 
HETATM    6  C   UNK     0      67.816  72.155  62.404  0.00  0.00     0.030 A 
ENDROOT
BRANCH   1   7
HETATM    7  C   UNK     0      64.265  73.290  62.643  0.00  0.00     0.164 A 
HETATM    8  N   UNK     0      63.436  73.216  63.721  0.00  0.00    -0.312 N 
HETATM    9  C   UNK     0      62.209  73.253  63.190  0.00  0.00     0.191 A 
HETATM   10  C   UNK     0      63.830  73.122  65.109  0.00  0.00     0.160 C 
HETATM   11  N   UNK     0      62.221  73.341  61.905  0.00  0.00    -0.122 NA
HETATM   12  N   UNK     0      63.553  73.366  61.542  0.00  0.00    -0.128 NA
BRANCH   9  13
HETATM   13  S   UNK     0      60.753  73.187  64.192  0.00  0.00    -0.081 SA
BRANCH  13  14
HETATM   14  C   UNK     0      61.126  74.473  65.394  0.00  0.00     0.185 C 
BRANCH  14  15
HETATM   15  C   UNK     0      61.032  75.802  64.687  0.00  0.00     0.229 C 
HETATM   16  O   UNK     0      62.053  76.474  64.526  0.00  0.00    -0.273 OA
HETATM   17  N   UNK     0      59.766  76.185  64.251  0.00  0.00    -0.347 N 
HETATM   18  C   UNK     0      59.563  77.514  63.674  0.00  0.00     0.152 C 
HETATM   19  C   UNK     0      58.534  75.410  64.427  0.00  0.00     0.152 C 
HETATM   20  C   UNK     0      58.714  77.420  62.414  0.00  0.00     0.187 C 
HETATM   21  O   UNK     0      57.485  76.746  62.694  0.00  0.00    -0.388 OA
HETATM   22  C   UNK     0      57.724  75.406  63.136  0.00  0.00     0.187 C 
ENDBRANCH  14  15
ENDBRANCH  13  14
ENDBRANCH   9  13
ENDBRANCH   1   7
BRANCH   4  23
HETATM   23  N   UNK     0      69.882  73.272  62.969  0.00  0.00    -0.323 N 
HETATM   24  C   UNK     0      70.773  74.279  62.573  0.00  0.00     0.259 C 
HETATM   25  O   UNK     0      70.485  75.362  62.076  0.00  0.00    -0.267 OA
HETATM   26  H   UNK     0      70.267  72.438  63.404  0.00  0.00     0.169 HD
BRANCH  24  27
HETATM   27  C   UNK     0      72.213  73.966  62.762  0.00  0.00     0.070 A 
HETATM   28  C   UNK     0      72.856  74.424  63.893  0.00  0.00     0.132 A 
HETATM   29  F   UNK     0      72.213  75.144  64.823  0.00  0.00    -0.205 F 
HETATM   30  C   UNK     0      74.207  74.127  64.067  0.00  0.00     0.043 A 
HETATM   31  C   UNK     0      74.886  73.379  63.105  0.00  0.00     0.003 A 
HETATM   32  C   UNK     0      74.214  72.927  61.970  0.00  0.00     0.001 A 
HETATM   33  C   UNK     0      72.861  73.224  61.796  0.00  0.00     0.020 A 
ENDBRANCH  24  27
ENDBRANCH   4  23
TORSDOF 6
ENDMDL
MODEL 9
REMARK VINA RESULT:      -7.7     22.611     24.627
REMARK  6 active torsions:
REMARK  status: ('A' for Active; 'I' for Inactive)
REMARK    1  A    between atoms: S_1  and  C_16 
REMARK    2  A    between atoms: S_1  and  C_17 
REMARK       I    between atoms: N_6  and  C_15 
REMARK    3  A    between atoms: N_10  and  C_23 
REMARK       I    between atoms: N_10  and  C_26 
REMARK    4  A    between atoms: C_15  and  C_16 
REMARK    5  A    between atoms: C_18  and  C_19 
REMARK    6  A    between atoms: C_26  and  C_27 
ROOT
HETATM    1  C   UNK     0      55.106  55.013  71.112  0.00  0.00     0.012 A 
HETATM    2  C   UNK     0      55.011  56.330  71.560  0.00  0.00     0.017 A 
HETATM    3  C   UNK     0      55.236  54.747  69.749  0.00  0.00     0.017 A 
HETATM    4  C   UNK     0      55.176  57.117  69.281  0.00  0.00     0.035 A 
HETATM    5  C   UNK     0      55.046  57.382  70.644  0.00  0.00     0.030 A 
HETATM    6  C   UNK     0      55.272  55.799  68.833  0.00  0.00     0.030 A 
ENDROOT
BRANCH   1   7
HETATM    7  C   UNK     0      55.068  53.925  72.058  0.00  0.00     0.164 A 
HETATM    8  N   UNK     0      53.932  53.265  72.417  0.00  0.00    -0.312 N 
HETATM    9  C   UNK     0      54.353  52.351  73.298  0.00  0.00     0.191 A 
HETATM   10  C   UNK     0      52.594  53.522  71.933  0.00  0.00     0.160 C 
HETATM   11  N   UNK     0      55.624  52.398  73.501  0.00  0.00    -0.122 NA
HETATM   12  N   UNK     0      56.096  53.418  72.700  0.00  0.00    -0.128 NA
BRANCH   9  13
HETATM   13  S   UNK     0      53.239  51.216  74.074  0.00  0.00    -0.081 SA
BRANCH  13  14
HETATM   14  C   UNK     0      52.409  52.317  75.230  0.00  0.00     0.185 C 
BRANCH  14  15
HETATM   15  C   UNK     0      52.743  51.853  76.625  0.00  0.00     0.229 C 
HETATM   16  O   UNK     0      52.710  50.648  76.886  0.00  0.00    -0.273 OA
HETATM   17  N   UNK     0      53.080  52.844  77.545  0.00  0.00    -0.347 N 
HETATM   18  C   UNK     0      53.291  52.496  78.950  0.00  0.00     0.152 C 
HETATM   19  C   UNK     0      53.128  54.283  77.268  0.00  0.00     0.152 C 
HETATM   20  C   UNK     0      54.542  53.180  79.483  0.00  0.00     0.187 C 
HETATM   21  O   UNK     0      54.463  54.591  79.270  0.00  0.00    -0.388 OA
HETATM   22  C   UNK     0      54.385  54.895  77.874  0.00  0.00     0.187 C 
ENDBRANCH  14  15
ENDBRANCH  13  14
ENDBRANCH   9  13
ENDBRANCH   1   7
BRANCH   4  23
HETATM   23  N   UNK     0      55.213  58.169  68.366  0.00  0.00    -0.323 N 
HETATM   24  C   UNK     0      54.133  58.877  67.823  0.00  0.00     0.259 C 
HETATM   25  O   UNK     0      52.943  58.697  68.057  0.00  0.00    -0.267 OA
HETATM   26  H   UNK     0      56.152  58.458  68.107  0.00  0.00     0.169 HD
BRANCH  24  27
HETATM   27  C   UNK     0      54.493  59.935  66.843  0.00  0.00     0.070 A 
HETATM   28  C   UNK     0      55.265  60.999  67.260  0.00  0.00     0.132 A 
HETATM   29  F   UNK     0      55.695  61.103  68.525  0.00  0.00    -0.205 F 
HETATM   30  C   UNK     0      55.601  61.990  66.337  0.00  0.00     0.043 A 
HETATM   31  C   UNK     0      55.158  61.894  65.018  0.00  0.00     0.003 A 
HETATM   32  C   UNK     0      54.380  60.807  64.622  0.00  0.00     0.001 A 
HETATM   33  C   UNK     0      54.043  59.816  65.544  0.00  0.00     0.020 A 
ENDBRANCH  24  27
ENDBRANCH   4  23
TORSDOF 6
ENDMDL
