MODEL 1
REMARK VINA RESULT:      -7.3      0.000      0.000
REMARK  5 active torsions:
REMARK  status: ('A' for Active; 'I' for Inactive)
REMARK    1  A    between atoms: S_1  and  C_6 
REMARK    2  A    between atoms: S_1  and  C_14 
REMARK       I    between atoms: N_3  and  C_8 
REMARK    3  A    between atoms: N_3  and  C_9 
REMARK    4  A    between atoms: C_6  and  C_7 
REMARK    5  A    between atoms: C_6  and  C_8 
ROOT
HETATM    1  O   UNK     0      52.585  56.708  70.812  0.00  0.00    -0.272 OA
HETATM    2  N   UNK     0      54.226  56.044  69.268  0.00  0.00    -0.325 N 
HETATM    3  C   UNK     0      53.022  55.925  69.973  0.00  0.00     0.236 C 
HETATM    4  H   UNK     0      54.513  55.215  68.757  0.00  0.00     0.169 HD
ENDROOT
BRANCH   2   5
HETATM    5  C   UNK     0      55.172  57.073  69.343  0.00  0.00     0.045 A 
HETATM    6  C   UNK     0      55.118  58.191  68.492  0.00  0.00     0.001 A 
HETATM    7  C   UNK     0      56.103  59.200  68.613  0.00  0.00    -0.024 A 
HETATM    8  C   UNK     0      54.109  58.328  67.526  0.00  0.00     0.014 A 
HETATM    9  C   UNK     0      57.113  59.062  69.580  0.00  0.00     0.012 A 
HETATM   10  C   UNK     0      56.049  60.317  67.763  0.00  0.00     0.012 A 
HETATM   11  C   UNK     0      57.151  57.946  70.416  0.00  0.00     0.003 A 
HETATM   12  C   UNK     0      56.183  56.954  70.297  0.00  0.00     0.030 A 
HETATM   13  C   UNK     0      55.039  60.436  66.809  0.00  0.00     0.001 A 
HETATM   14  C   UNK     0      54.071  59.444  66.690  0.00  0.00     0.001 A 
ENDBRANCH   2   5
BRANCH   3  15
HETATM   15  C   UNK     0      52.268  54.647  69.606  0.00  0.00     0.147 C 
BRANCH  15  16
HETATM   16  S   UNK     0      52.171  53.641  71.131  0.00  0.00    -0.077 SA
BRANCH  16  17
HETATM   17  C   UNK     0      53.894  53.562  71.596  0.00  0.00     0.168 A 
HETATM   18  N   UNK     0      54.300  54.018  72.786  0.00  0.00    -0.339 N 
HETATM   19  C   UNK     0      55.650  53.808  72.816  0.00  0.00     0.112 A 
HETATM   20  C   UNK     0      53.536  54.615  73.860  0.00  0.00     0.158 C 
HETATM   21  C   UNK     0      55.941  53.227  71.603  0.00  0.00     0.136 A 
HETATM   22  N   UNK     0      54.810  53.079  70.841  0.00  0.00    -0.235 NA
ENDBRANCH  16  17
ENDBRANCH  15  16
BRANCH  15  23
HETATM   23  C   UNK     0      50.851  54.927  69.090  0.00  0.00     0.021 C 
HETATM   24  C   UNK     0      50.142  53.651  68.650  0.00  0.00     0.006 C 
ENDBRANCH  15  23
ENDBRANCH   3  15
TORSDOF 5
ENDMDL
MODEL 2
REMARK VINA RESULT:      -7.3     19.391     22.049
REMARK  5 active torsions:
REMARK  status: ('A' for Active; 'I' for Inactive)
REMARK    1  A    between atoms: S_1  and  C_6 
REMARK    2  A    between atoms: S_1  and  C_14 
REMARK       I    between atoms: N_3  and  C_8 
REMARK    3  A    between atoms: N_3  and  C_9 
REMARK    4  A    between atoms: C_6  and  C_7 
REMARK    5  A    between atoms: C_6  and  C_8 
ROOT
HETATM    1  O   UNK     0      63.384  72.945  62.222  0.00  0.00    -0.272 OA
HETATM    2  N   UNK     0      62.468  74.948  63.038  0.00  0.00    -0.325 N 
HETATM    3  C   UNK     0      63.426  74.162  62.386  0.00  0.00     0.236 C 
HETATM    4  H   UNK     0      62.755  75.900  63.243  0.00  0.00     0.169 HD
ENDROOT
BRANCH   2   5
HETATM    5  C   UNK     0      61.261  74.536  63.617  0.00  0.00     0.045 A 
HETATM    6  C   UNK     0      60.139  75.380  63.668  0.00  0.00     0.001 A 
HETATM    7  C   UNK     0      58.947  74.909  64.267  0.00  0.00    -0.024 A 
HETATM    8  C   UNK     0      60.175  76.680  63.138  0.00  0.00     0.014 A 
HETATM    9  C   UNK     0      58.911  73.609  64.796  0.00  0.00     0.012 A 
HETATM   10  C   UNK     0      57.825  75.753  64.318  0.00  0.00     0.012 A 
HETATM   11  C   UNK     0      60.034  72.785  64.737  0.00  0.00     0.003 A 
HETATM   12  C   UNK     0      61.207  73.248  64.149  0.00  0.00     0.030 A 
HETATM   13  C   UNK     0      57.879  77.042  63.786  0.00  0.00     0.001 A 
HETATM   14  C   UNK     0      59.052  77.505  63.198  0.00  0.00     0.001 A 
ENDBRANCH   2   5
BRANCH   3  15
HETATM   15  C   UNK     0      64.610  74.993  61.892  0.00  0.00     0.147 C 
BRANCH  15  16
HETATM   16  S   UNK     0      65.942  73.810  61.476  0.00  0.00    -0.077 SA
BRANCH  16  17
HETATM   17  C   UNK     0      67.135  74.176  62.754  0.00  0.00     0.168 A 
HETATM   18  N   UNK     0      67.023  73.624  63.967  0.00  0.00    -0.339 N 
HETATM   19  C   UNK     0      68.079  74.108  64.686  0.00  0.00     0.112 A 
HETATM   20  C   UNK     0      66.030  72.705  64.480  0.00  0.00     0.158 C 
HETATM   21  C   UNK     0      68.750  74.933  63.812  0.00  0.00     0.136 A 
HETATM   22  N   UNK     0      68.132  74.963  62.587  0.00  0.00    -0.235 NA
ENDBRANCH  16  17
ENDBRANCH  15  16
BRANCH  15  23
HETATM   23  C   UNK     0      64.266  75.830  60.654  0.00  0.00     0.021 C 
HETATM   24  C   UNK     0      63.294  75.105  59.729  0.00  0.00     0.006 C 
ENDBRANCH  15  23
ENDBRANCH   3  15
TORSDOF 5
ENDMDL
MODEL 3
REMARK VINA RESULT:      -7.2      1.389      1.911
REMARK  5 active torsions:
REMARK  status: ('A' for Active; 'I' for Inactive)
REMARK    1  A    between atoms: S_1  and  C_6 
REMARK    2  A    between atoms: S_1  and  C_14 
REMARK       I    between atoms: N_3  and  C_8 
REMARK    3  A    between atoms: N_3  and  C_9 
REMARK    4  A    between atoms: C_6  and  C_7 
REMARK    5  A    between atoms: C_6  and  C_8 
ROOT
HETATM    1  O   UNK     0      54.001  54.414  68.795  0.00  0.00    -0.272 OA
HETATM    2  N   UNK     0      53.211  56.526  69.454  0.00  0.00    -0.325 N 
HETATM    3  C   UNK     0      53.085  55.184  69.073  0.00  0.00     0.236 C 
HETATM    4  H   UNK     0      52.346  57.057  69.462  0.00  0.00     0.169 HD
ENDROOT
BRANCH   2   5
HETATM    5  C   UNK     0      54.385  57.268  69.624  0.00  0.00     0.045 A 
HETATM    6  C   UNK     0      54.734  58.312  68.751  0.00  0.00     0.001 A 
HETATM    7  C   UNK     0      55.936  59.027  68.973  0.00  0.00    -0.024 A 
HETATM    8  C   UNK     0      53.917  58.662  67.664  0.00  0.00     0.014 A 
HETATM    9  C   UNK     0      56.752  58.677  70.060  0.00  0.00     0.012 A 
HETATM   10  C   UNK     0      56.284  60.071  68.100  0.00  0.00     0.012 A 
HETATM   11  C   UNK     0      56.390  57.638  70.917  0.00  0.00     0.003 A 
HETATM   12  C   UNK     0      55.210  56.934  70.699  0.00  0.00     0.030 A 
HETATM   13  C   UNK     0      55.460  60.405  67.025  0.00  0.00     0.001 A 
HETATM   14  C   UNK     0      54.279  59.702  66.807  0.00  0.00     0.001 A 
ENDBRANCH   2   5
BRANCH   3  15
HETATM   15  C   UNK     0      51.623  54.744  69.000  0.00  0.00     0.147 C 
BRANCH  15  16
HETATM   16  S   UNK     0      51.347  53.614  70.412  0.00  0.00    -0.077 SA
BRANCH  16  17
HETATM   17  C   UNK     0      52.106  54.536  71.740  0.00  0.00     0.168 A 
HETATM   18  N   UNK     0      53.222  54.090  72.326  0.00  0.00    -0.339 N 
HETATM   19  C   UNK     0      53.527  55.018  73.282  0.00  0.00     0.112 A 
HETATM   20  C   UNK     0      53.996  52.897  72.061  0.00  0.00     0.158 C 
HETATM   21  C   UNK     0      52.535  55.966  73.180  0.00  0.00     0.136 A 
HETATM   22  N   UNK     0      51.639  55.641  72.192  0.00  0.00    -0.235 NA
ENDBRANCH  16  17
ENDBRANCH  15  16
BRANCH  15  23
HETATM   23  C   UNK     0      50.648  55.924  69.093  0.00  0.00     0.021 C 
HETATM   24  C   UNK     0      49.246  55.542  68.632  0.00  0.00     0.006 C 
ENDBRANCH  15  23
ENDBRANCH   3  15
TORSDOF 5
ENDMDL
MODEL 4
REMARK VINA RESULT:      -7.1      2.005      2.619
REMARK  5 active torsions:
REMARK  status: ('A' for Active; 'I' for Inactive)
REMARK    1  A    between atoms: S_1  and  C_6 
REMARK    2  A    between atoms: S_1  and  C_14 
REMARK       I    between atoms: N_3  and  C_8 
REMARK    3  A    between atoms: N_3  and  C_9 
REMARK    4  A    between atoms: C_6  and  C_7 
REMARK    5  A    between atoms: C_6  and  C_8 
ROOT
HETATM    1  O   UNK     0      54.168  54.873  68.871  0.00  0.00    -0.272 OA
HETATM    2  N   UNK     0      53.732  56.784  70.165  0.00  0.00    -0.325 N 
HETATM    3  C   UNK     0      53.460  55.513  69.644  0.00  0.00     0.236 C 
HETATM    4  H   UNK     0      52.954  57.236  70.635  0.00  0.00     0.169 HD
ENDROOT
BRANCH   2   5
HETATM    5  C   UNK     0      54.861  57.584  69.946  0.00  0.00     0.045 A 
HETATM    6  C   UNK     0      54.928  58.491  68.876  0.00  0.00     0.001 A 
HETATM    7  C   UNK     0      56.096  59.272  68.704  0.00  0.00    -0.024 A 
HETATM    8  C   UNK     0      53.863  58.641  67.974  0.00  0.00     0.014 A 
HETATM    9  C   UNK     0      57.162  59.122  69.606  0.00  0.00     0.012 A 
HETATM   10  C   UNK     0      56.164  60.180  67.633  0.00  0.00     0.012 A 
HETATM   11  C   UNK     0      57.078  58.216  70.663  0.00  0.00     0.003 A 
HETATM   12  C   UNK     0      55.930  57.448  70.832  0.00  0.00     0.030 A 
HETATM   13  C   UNK     0      55.095  60.316  66.747  0.00  0.00     0.001 A 
HETATM   14  C   UNK     0      53.947  59.548  66.917  0.00  0.00     0.001 A 
ENDBRANCH   2   5
BRANCH   3  15
HETATM   15  C   UNK     0      52.114  54.972  70.125  0.00  0.00     0.147 C 
BRANCH  15  16
HETATM   16  S   UNK     0      51.191  56.399  70.803  0.00  0.00    -0.077 SA
BRANCH  16  17
HETATM   17  C   UNK     0      51.473  56.187  72.554  0.00  0.00     0.168 A 
HETATM   18  N   UNK     0      50.448  55.991  73.390  0.00  0.00    -0.339 N 
HETATM   19  C   UNK     0      51.008  55.870  74.631  0.00  0.00     0.112 A 
HETATM   20  C   UNK     0      49.030  55.911  73.116  0.00  0.00     0.158 C 
HETATM   21  C   UNK     0      52.360  56.009  74.420  0.00  0.00     0.136 A 
HETATM   22  N   UNK     0      52.637  56.211  73.092  0.00  0.00    -0.235 NA
ENDBRANCH  16  17
ENDBRANCH  15  16
BRANCH  15  23
HETATM   23  C   UNK     0      51.300  54.329  68.996  0.00  0.00     0.021 C 
HETATM   24  C   UNK     0      49.874  54.864  68.945  0.00  0.00     0.006 C 
ENDBRANCH  15  23
ENDBRANCH   3  15
TORSDOF 5
ENDMDL
MODEL 5
REMARK VINA RESULT:      -7.1     18.705     21.841
REMARK  5 active torsions:
REMARK  status: ('A' for Active; 'I' for Inactive)
REMARK    1  A    between atoms: S_1  and  C_6 
REMARK    2  A    between atoms: S_1  and  C_14 
REMARK       I    between atoms: N_3  and  C_8 
REMARK    3  A    between atoms: N_3  and  C_9 
REMARK    4  A    between atoms: C_6  and  C_7 
REMARK    5  A    between atoms: C_6  and  C_8 
ROOT
HETATM    1  O   UNK     0      63.008  74.053  66.002  0.00  0.00    -0.272 OA
HETATM    2  N   UNK     0      61.939  73.625  63.955  0.00  0.00    -0.325 N 
HETATM    3  C   UNK     0      63.038  73.734  64.816  0.00  0.00     0.236 C 
HETATM    4  H   UNK     0      62.167  73.534  62.970  0.00  0.00     0.169 HD
ENDROOT
BRANCH   2   5
HETATM    5  C   UNK     0      60.585  73.826  64.252  0.00  0.00     0.045 A 
HETATM    6  C   UNK     0      59.945  75.050  63.995  0.00  0.00     0.001 A 
HETATM    7  C   UNK     0      58.575  75.196  64.319  0.00  0.00    -0.024 A 
HETATM    8  C   UNK     0      60.635  76.132  63.425  0.00  0.00     0.014 A 
HETATM    9  C   UNK     0      57.885  74.113  64.889  0.00  0.00     0.012 A 
HETATM   10  C   UNK     0      57.935  76.420  64.062  0.00  0.00     0.012 A 
HETATM   11  C   UNK     0      58.537  72.905  65.137  0.00  0.00     0.003 A 
HETATM   12  C   UNK     0      59.884  72.762  64.819  0.00  0.00     0.030 A 
HETATM   13  C   UNK     0      58.637  77.484  63.495  0.00  0.00     0.001 A 
HETATM   14  C   UNK     0      59.984  77.341  63.178  0.00  0.00     0.001 A 
ENDBRANCH   2   5
BRANCH   3  15
HETATM   15  C   UNK     0      64.356  73.433  64.104  0.00  0.00     0.147 C 
BRANCH  15  16
HETATM   16  S   UNK     0      63.927  72.948  62.393  0.00  0.00    -0.077 SA
BRANCH  16  17
HETATM   17  C   UNK     0      64.372  74.429  61.498  0.00  0.00     0.168 A 
HETATM   18  N   UNK     0      65.559  74.524  60.888  0.00  0.00    -0.339 N 
HETATM   19  C   UNK     0      65.573  75.762  60.310  0.00  0.00     0.112 A 
HETATM   20  C   UNK     0      66.642  73.568  60.812  0.00  0.00     0.158 C 
HETATM   21  C   UNK     0      64.356  76.314  60.635  0.00  0.00     0.136 A 
HETATM   22  N   UNK     0      63.606  75.450  61.392  0.00  0.00    -0.235 NA
ENDBRANCH  16  17
ENDBRANCH  15  16
BRANCH  15  23
HETATM   23  C   UNK     0      65.296  74.645  64.070  0.00  0.00     0.021 C 
HETATM   24  C   UNK     0      66.744  74.249  64.334  0.00  0.00     0.006 C 
ENDBRANCH  15  23
ENDBRANCH   3  15
TORSDOF 5
ENDMDL
MODEL 6
REMARK VINA RESULT:      -7.0      2.500      4.488
REMARK  5 active torsions:
REMARK  status: ('A' for Active; 'I' for Inactive)
REMARK    1  A    between atoms: S_1  and  C_6 
REMARK    2  A    between atoms: S_1  and  C_14 
REMARK       I    between atoms: N_3  and  C_8 
REMARK    3  A    between atoms: N_3  and  C_9 
REMARK    4  A    between atoms: C_6  and  C_7 
REMARK    5  A    between atoms: C_6  and  C_8 
ROOT
HETATM    1  O   UNK     0      53.141  54.195  71.525  0.00  0.00    -0.272 OA
HETATM    2  N   UNK     0      54.098  56.284  72.011  0.00  0.00    -0.325 N 
HETATM    3  C   UNK     0      53.699  54.972  72.295  0.00  0.00     0.236 C 
HETATM    4  H   UNK     0      54.372  56.838  72.817  0.00  0.00     0.169 HD
ENDROOT
BRANCH   2   5
HETATM    5  C   UNK     0      53.976  56.981  70.803  0.00  0.00     0.045 A 
HETATM    6  C   UNK     0      55.069  57.637  70.214  0.00  0.00     0.001 A 
HETATM    7  C   UNK     0      54.885  58.328  68.992  0.00  0.00    -0.024 A 
HETATM    8  C   UNK     0      56.340  57.622  70.809  0.00  0.00     0.014 A 
HETATM    9  C   UNK     0      53.613  58.342  68.396  0.00  0.00     0.012 A 
HETATM   10  C   UNK     0      55.978  58.984  68.403  0.00  0.00     0.012 A 
HETATM   11  C   UNK     0      52.539  57.685  68.996  0.00  0.00     0.003 A 
HETATM   12  C   UNK     0      52.719  57.007  70.197  0.00  0.00     0.030 A 
HETATM   13  C   UNK     0      57.235  58.958  69.009  0.00  0.00     0.001 A 
HETATM   14  C   UNK     0      57.415  58.280  70.210  0.00  0.00     0.001 A 
ENDBRANCH   2   5
BRANCH   3  15
HETATM   15  C   UNK     0      54.009  54.578  73.739  0.00  0.00     0.147 C 
BRANCH  15  16
HETATM   16  S   UNK     0      52.399  54.367  74.581  0.00  0.00    -0.077 SA
BRANCH  16  17
HETATM   17  C   UNK     0      52.780  54.999  76.208  0.00  0.00     0.168 A 
HETATM   18  N   UNK     0      53.205  54.178  77.175  0.00  0.00    -0.339 N 
HETATM   19  C   UNK     0      53.400  54.974  78.268  0.00  0.00     0.112 A 
HETATM   20  C   UNK     0      53.435  52.751  77.144  0.00  0.00     0.158 C 
HETATM   21  C   UNK     0      53.064  56.239  77.846  0.00  0.00     0.136 A 
HETATM   22  N   UNK     0      52.671  56.235  76.531  0.00  0.00    -0.235 NA
ENDBRANCH  16  17
ENDBRANCH  15  16
BRANCH  15  23
HETATM   23  C   UNK     0      54.810  53.273  73.834  0.00  0.00     0.021 C 
HETATM   24  C   UNK     0      56.128  53.357  73.073  0.00  0.00     0.006 C 
ENDBRANCH  15  23
ENDBRANCH   3  15
TORSDOF 5
ENDMDL
MODEL 7
REMARK VINA RESULT:      -6.9     17.983     21.505
REMARK  5 active torsions:
REMARK  status: ('A' for Active; 'I' for Inactive)
REMARK    1  A    between atoms: S_1  and  C_6 
REMARK    2  A    between atoms: S_1  and  C_14 
REMARK       I    between atoms: N_3  and  C_8 
REMARK    3  A    between atoms: N_3  and  C_9 
REMARK    4  A    between atoms: C_6  and  C_7 
REMARK    5  A    between atoms: C_6  and  C_8 
ROOT
HETATM    1  O   UNK     0      61.335  74.509  61.250  0.00  0.00    -0.272 OA
HETATM    2  N   UNK     0      62.766  75.755  62.636  0.00  0.00    -0.325 N 
HETATM    3  C   UNK     0      61.534  75.229  62.226  0.00  0.00     0.236 C 
HETATM    4  H   UNK     0      62.713  76.475  63.349  0.00  0.00     0.169 HD
ENDROOT
BRANCH   2   5
HETATM    5  C   UNK     0      64.024  75.563  62.052  0.00  0.00     0.045 A 
HETATM    6  C   UNK     0      64.984  74.713  62.627  0.00  0.00     0.001 A 
HETATM    7  C   UNK     0      66.240  74.560  61.992  0.00  0.00    -0.024 A 
HETATM    8  C   UNK     0      64.725  74.013  63.815  0.00  0.00     0.014 A 
HETATM    9  C   UNK     0      66.498  75.260  60.803  0.00  0.00     0.012 A 
HETATM   10  C   UNK     0      67.200  73.710  62.566  0.00  0.00     0.012 A 
HETATM   11  C   UNK     0      65.534  76.100  60.247  0.00  0.00     0.003 A 
HETATM   12  C   UNK     0      64.299  76.251  60.871  0.00  0.00     0.030 A 
HETATM   13  C   UNK     0      66.925  73.021  63.748  0.00  0.00     0.001 A 
HETATM   14  C   UNK     0      65.690  73.173  64.372  0.00  0.00     0.001 A 
ENDBRANCH   2   5
BRANCH   3  15
HETATM   15  C   UNK     0      60.389  75.677  63.133  0.00  0.00     0.147 C 
BRANCH  15  16
HETATM   16  S   UNK     0      60.837  75.166  64.832  0.00  0.00    -0.077 SA
BRANCH  16  17
HETATM   17  C   UNK     0      60.201  73.497  64.864  0.00  0.00     0.168 A 
HETATM   18  N   UNK     0      58.885  73.272  64.945  0.00  0.00    -0.339 N 
HETATM   19  C   UNK     0      58.748  71.912  64.948  0.00  0.00     0.112 A 
HETATM   20  C   UNK     0      57.787  74.210  65.015  0.00  0.00     0.158 C 
HETATM   21  C   UNK     0      60.034  71.429  64.866  0.00  0.00     0.136 A 
HETATM   22  N   UNK     0      60.945  72.454  64.815  0.00  0.00    -0.235 NA
ENDBRANCH  16  17
ENDBRANCH  15  16
BRANCH  15  23
HETATM   23  C   UNK     0      60.170  77.195  63.099  0.00  0.00     0.021 C 
HETATM   24  C   UNK     0      58.695  77.554  62.965  0.00  0.00     0.006 C 
ENDBRANCH  15  23
ENDBRANCH   3  15
TORSDOF 5
ENDMDL
MODEL 8
REMARK VINA RESULT:      -6.9     18.917     22.317
REMARK  5 active torsions:
REMARK  status: ('A' for Active; 'I' for Inactive)
REMARK    1  A    between atoms: S_1  and  C_6 
REMARK    2  A    between atoms: S_1  and  C_14 
REMARK       I    between atoms: N_3  and  C_8 
REMARK    3  A    between atoms: N_3  and  C_9 
REMARK    4  A    between atoms: C_6  and  C_7 
REMARK    5  A    between atoms: C_6  and  C_8 
ROOT
HETATM    1  O   UNK     0      66.267  71.538  63.812  0.00  0.00    -0.272 OA
HETATM    2  N   UNK     0      67.334  73.412  62.881  0.00  0.00    -0.325 N 
HETATM    3  C   UNK     0      66.242  72.582  63.166  0.00  0.00     0.236 C 
HETATM    4  H   UNK     0      67.164  74.128  62.182  0.00  0.00     0.169 HD
ENDROOT
BRANCH   2   5
HETATM    5  C   UNK     0      68.667  73.254  63.282  0.00  0.00     0.045 A 
HETATM    6  C   UNK     0      69.211  73.987  64.349  0.00  0.00     0.001 A 
HETATM    7  C   UNK     0      70.565  73.785  64.708  0.00  0.00    -0.024 A 
HETATM    8  C   UNK     0      68.441  74.915  65.068  0.00  0.00     0.014 A 
HETATM    9  C   UNK     0      71.335  72.856  63.989  0.00  0.00     0.012 A 
HETATM   10  C   UNK     0      71.109  74.519  65.775  0.00  0.00     0.012 A 
HETATM   11  C   UNK     0      70.778  72.137  62.931  0.00  0.00     0.003 A 
HETATM   12  C   UNK     0      69.447  72.336  62.579  0.00  0.00     0.030 A 
HETATM   13  C   UNK     0      70.329  75.437  66.478  0.00  0.00     0.001 A 
HETATM   14  C   UNK     0      68.998  75.636  66.126  0.00  0.00     0.001 A 
ENDBRANCH   2   5
BRANCH   3  15
HETATM   15  C   UNK     0      64.948  73.105  62.543  0.00  0.00     0.147 C 
BRANCH  15  16
HETATM   16  S   UNK     0      64.137  74.140  63.814  0.00  0.00    -0.077 SA
BRANCH  16  17
HETATM   17  C   UNK     0      62.593  73.268  64.029  0.00  0.00     0.168 A 
HETATM   18  N   UNK     0      62.066  73.108  65.248  0.00  0.00    -0.339 N 
HETATM   19  C   UNK     0      60.907  72.410  65.055  0.00  0.00     0.112 A 
HETATM   20  C   UNK     0      62.556  73.549  66.536  0.00  0.00     0.158 C 
HETATM   21  C   UNK     0      60.841  72.208  63.695  0.00  0.00     0.136 A 
HETATM   22  N   UNK     0      61.924  72.761  63.060  0.00  0.00    -0.235 NA
ENDBRANCH  16  17
ENDBRANCH  15  16
BRANCH  15  23
HETATM   23  C   UNK     0      65.199  73.945  61.285  0.00  0.00     0.021 C 
HETATM   24  C   UNK     0      64.516  75.306  61.364  0.00  0.00     0.006 C 
ENDBRANCH  15  23
ENDBRANCH   3  15
TORSDOF 5
ENDMDL
MODEL 9
REMARK VINA RESULT:      -6.9     19.233     22.626
REMARK  5 active torsions:
REMARK  status: ('A' for Active; 'I' for Inactive)
REMARK    1  A    between atoms: S_1  and  C_6 
REMARK    2  A    between atoms: S_1  and  C_14 
REMARK       I    between atoms: N_3  and  C_8 
REMARK    3  A    between atoms: N_3  and  C_9 
REMARK    4  A    between atoms: C_6  and  C_7 
REMARK    5  A    between atoms: C_6  and  C_8 
ROOT
HETATM    1  O   UNK     0      66.299  72.392  64.843  0.00  0.00    -0.272 OA
HETATM    2  N   UNK     0      67.417  74.129  63.723  0.00  0.00    -0.325 N 
HETATM    3  C   UNK     0      66.359  73.241  63.957  0.00  0.00     0.236 C 
HETATM    4  H   UNK     0      67.377  74.628  62.840  0.00  0.00     0.169 HD
ENDROOT
BRANCH   2   5
HETATM    5  C   UNK     0      68.608  74.262  64.448  0.00  0.00     0.045 A 
HETATM    6  C   UNK     0      69.796  73.633  64.041  0.00  0.00     0.001 A 
HETATM    7  C   UNK     0      70.968  73.803  64.815  0.00  0.00    -0.024 A 
HETATM    8  C   UNK     0      69.845  72.839  62.884  0.00  0.00     0.014 A 
HETATM    9  C   UNK     0      70.919  74.598  65.971  0.00  0.00     0.012 A 
HETATM   10  C   UNK     0      72.157  73.173  64.408  0.00  0.00     0.012 A 
HETATM   11  C   UNK     0      69.730  75.215  66.360  0.00  0.00     0.003 A 
HETATM   12  C   UNK     0      68.577  75.048  65.600  0.00  0.00     0.030 A 
HETATM   13  C   UNK     0      72.187  72.388  63.255  0.00  0.00     0.001 A 
HETATM   14  C   UNK     0      71.034  72.220  62.495  0.00  0.00     0.001 A 
ENDBRANCH   2   5
BRANCH   3  15
HETATM   15  C   UNK     0      65.234  73.409  62.937  0.00  0.00     0.147 C 
BRANCH  15  16
HETATM   16  S   UNK     0      64.148  74.738  63.571  0.00  0.00    -0.077 SA
BRANCH  16  17
HETATM   17  C   UNK     0      63.073  73.812  64.655  0.00  0.00     0.168 A 
HETATM   18  N   UNK     0      61.962  73.237  64.182  0.00  0.00    -0.339 N 
HETATM   19  C   UNK     0      61.385  72.621  65.258  0.00  0.00     0.112 A 
HETATM   20  C   UNK     0      61.423  73.224  62.840  0.00  0.00     0.158 C 
HETATM   21  C   UNK     0      62.228  72.891  66.311  0.00  0.00     0.136 A 
HETATM   22  N   UNK     0      63.297  73.651  65.907  0.00  0.00    -0.235 NA
ENDBRANCH  16  17
ENDBRANCH  15  16
BRANCH  15  23
HETATM   23  C   UNK     0      65.753  73.795  61.546  0.00  0.00     0.021 C 
HETATM   24  C   UNK     0      65.181  75.127  61.074  0.00  0.00     0.006 C 
ENDBRANCH  15  23
ENDBRANCH   3  15
TORSDOF 5
ENDMDL
