MODEL 1
REMARK VINA RESULT:      -7.6      0.000      0.000
REMARK  3 active torsions:
REMARK  status: ('A' for Active; 'I' for Inactive)
REMARK    1  A    between atoms: N_4  and  C_6 
REMARK       I    between atoms: N_4  and  C_14 
REMARK    2  A    between atoms: C_7  and  C_9 
REMARK    3  A    between atoms: C_14  and  C_15 
ROOT
HETATM    1  S   UNK     0      55.620  60.117  67.679  0.00  0.00    -0.062 SA
HETATM    2  N   UNK     0      55.422  57.803  68.766  0.00  0.00    -0.284 N 
HETATM    3  N   UNK     0      53.373  58.513  68.228  0.00  0.00    -0.219 NA
HETATM    4  C   UNK     0      54.587  56.804  69.164  0.00  0.00     0.146 A 
HETATM    5  C   UNK     0      53.329  57.267  68.821  0.00  0.00     0.114 A 
HETATM    6  C   UNK     0      54.650  58.783  68.223  0.00  0.00     0.179 A 
HETATM    7  C   UNK     0      56.774  58.050  68.778  0.00  0.00     0.108 A 
HETATM    8  C   UNK     0      57.060  59.245  68.234  0.00  0.00     0.071 A 
ENDROOT
BRANCH   4   9
HETATM    9  N   UNK     0      55.015  55.648  69.757  0.00  0.00    -0.306 N 
HETATM   10  C   UNK     0      54.858  55.227  71.102  0.00  0.00     0.257 C 
HETATM   11  O   UNK     0      54.290  55.851  71.991  0.00  0.00    -0.267 OA
HETATM   12  H   UNK     0      55.474  55.008  69.116  0.00  0.00     0.170 HD
BRANCH  10  13
HETATM   13  C   UNK     0      55.464  53.916  71.456  0.00  0.00     0.032 A 
HETATM   14  C   UNK     0      55.533  52.932  70.494  0.00  0.00     0.017 A 
HETATM   15  C   UNK     0      56.103  51.703  70.826  0.00  0.00     0.001 A 
HETATM   16  C   UNK     0      56.592  51.488  72.115  0.00  0.00     0.000 A 
HETATM   17  C   UNK     0      56.509  52.501  73.071  0.00  0.00     0.001 A 
HETATM   18  C   UNK     0      55.939  53.730  72.737  0.00  0.00     0.017 A 
ENDBRANCH  10  13
ENDBRANCH   4   9
BRANCH   5  19
HETATM   19  C   UNK     0      52.103  56.552  69.043  0.00  0.00    -0.004 A 
HETATM   20  C   UNK     0      51.017  57.196  69.636  0.00  0.00     0.014 A 
HETATM   21  C   UNK     0      49.827  56.501  69.851  0.00  0.00     0.001 A 
HETATM   22  C   UNK     0      49.723  55.163  69.474  0.00  0.00     0.000 A 
HETATM   23  C   UNK     0      50.810  54.518  68.882  0.00  0.00     0.001 A 
HETATM   24  C   UNK     0      52.000  55.213  68.667  0.00  0.00     0.014 A 
ENDBRANCH   5  19
TORSDOF 3
ENDMDL
MODEL 2
REMARK VINA RESULT:      -7.5      2.645      5.588
REMARK  3 active torsions:
REMARK  status: ('A' for Active; 'I' for Inactive)
REMARK    1  A    between atoms: N_4  and  C_6 
REMARK       I    between atoms: N_4  and  C_14 
REMARK    2  A    between atoms: C_7  and  C_9 
REMARK    3  A    between atoms: C_14  and  C_15 
ROOT
HETATM    1  S   UNK     0      54.449  52.792  73.165  0.00  0.00    -0.062 SA
HETATM    2  N   UNK     0      54.287  54.839  71.631  0.00  0.00    -0.284 N 
HETATM    3  N   UNK     0      52.223  54.075  72.018  0.00  0.00    -0.219 NA
HETATM    4  C   UNK     0      53.466  55.676  70.938  0.00  0.00     0.146 A 
HETATM    5  C   UNK     0      52.198  55.182  71.193  0.00  0.00     0.114 A 
HETATM    6  C   UNK     0      53.498  53.917  72.246  0.00  0.00     0.179 A 
HETATM    7  C   UNK     0      55.638  54.707  71.848  0.00  0.00     0.108 A 
HETATM    8  C   UNK     0      55.905  53.661  72.649  0.00  0.00     0.071 A 
ENDROOT
BRANCH   4   9
HETATM    9  N   UNK     0      53.912  56.733  70.193  0.00  0.00    -0.306 N 
HETATM   10  C   UNK     0      54.222  56.780  68.811  0.00  0.00     0.257 C 
HETATM   11  O   UNK     0      54.138  55.846  68.021  0.00  0.00    -0.267 OA
HETATM   12  H   UNK     0      53.989  57.597  70.721  0.00  0.00     0.170 HD
BRANCH  10  13
HETATM   13  C   UNK     0      54.716  58.082  68.291  0.00  0.00     0.032 A 
HETATM   14  C   UNK     0      54.056  58.671  67.234  0.00  0.00     0.017 A 
HETATM   15  C   UNK     0      54.518  59.894  66.748  0.00  0.00     0.001 A 
HETATM   16  C   UNK     0      55.632  60.500  67.332  0.00  0.00     0.000 A 
HETATM   17  C   UNK     0      56.282  59.882  68.400  0.00  0.00     0.001 A 
HETATM   18  C   UNK     0      55.818  58.659  68.886  0.00  0.00     0.017 A 
ENDBRANCH  10  13
ENDBRANCH   4   9
BRANCH   5  19
HETATM   19  C   UNK     0      50.981  55.741  70.674  0.00  0.00    -0.004 A 
HETATM   20  C   UNK     0      50.575  55.442  69.373  0.00  0.00     0.014 A 
HETATM   21  C   UNK     0      49.393  55.983  68.869  0.00  0.00     0.001 A 
HETATM   22  C   UNK     0      48.617  56.826  69.665  0.00  0.00     0.000 A 
HETATM   23  C   UNK     0      49.024  57.126  70.965  0.00  0.00     0.001 A 
HETATM   24  C   UNK     0      50.206  56.584  71.469  0.00  0.00     0.014 A 
ENDBRANCH   5  19
TORSDOF 3
ENDMDL
MODEL 3
REMARK VINA RESULT:      -7.5      2.173      4.591
REMARK  3 active torsions:
REMARK  status: ('A' for Active; 'I' for Inactive)
REMARK    1  A    between atoms: N_4  and  C_6 
REMARK       I    between atoms: N_4  and  C_14 
REMARK    2  A    between atoms: C_7  and  C_9 
REMARK    3  A    between atoms: C_14  and  C_15 
ROOT
HETATM    1  S   UNK     0      49.249  56.963  69.696  0.00  0.00    -0.062 SA
HETATM    2  N   UNK     0      51.487  55.859  70.286  0.00  0.00    -0.284 N 
HETATM    3  N   UNK     0      51.896  57.870  69.404  0.00  0.00    -0.219 NA
HETATM    4  C   UNK     0      52.843  55.977  70.291  0.00  0.00     0.146 A 
HETATM    5  C   UNK     0      53.070  57.226  69.741  0.00  0.00     0.114 A 
HETATM    6  C   UNK     0      50.984  57.005  69.751  0.00  0.00     0.179 A 
HETATM    7  C   UNK     0      50.556  54.922  70.666  0.00  0.00     0.108 A 
HETATM    8  C   UNK     0      49.304  55.347  70.422  0.00  0.00     0.071 A 
ENDROOT
BRANCH   4   9
HETATM    9  N   UNK     0      53.688  55.008  70.762  0.00  0.00    -0.306 N 
HETATM   10  C   UNK     0      54.590  54.187  70.040  0.00  0.00     0.257 C 
HETATM   11  O   UNK     0      54.772  54.209  68.828  0.00  0.00    -0.267 OA
HETATM   12  H   UNK     0      53.670  54.910  71.772  0.00  0.00     0.170 HD
BRANCH  10  13
HETATM   13  C   UNK     0      55.361  53.198  70.837  0.00  0.00     0.032 A 
HETATM   14  C   UNK     0      55.817  53.558  72.087  0.00  0.00     0.017 A 
HETATM   15  C   UNK     0      56.539  52.629  72.835  0.00  0.00     0.001 A 
HETATM   16  C   UNK     0      56.788  51.357  72.316  0.00  0.00     0.000 A 
HETATM   17  C   UNK     0      56.316  51.018  71.047  0.00  0.00     0.001 A 
HETATM   18  C   UNK     0      55.594  51.949  70.300  0.00  0.00     0.017 A 
ENDBRANCH  10  13
ENDBRANCH   4   9
BRANCH   5  19
HETATM   19  C   UNK     0      54.367  57.809  69.538  0.00  0.00    -0.004 A 
HETATM   20  C   UNK     0      55.276  57.875  70.594  0.00  0.00     0.014 A 
HETATM   21  C   UNK     0      56.535  58.441  70.396  0.00  0.00     0.001 A 
HETATM   22  C   UNK     0      56.885  58.942  69.142  0.00  0.00     0.000 A 
HETATM   23  C   UNK     0      55.975  58.877  68.086  0.00  0.00     0.001 A 
HETATM   24  C   UNK     0      54.716  58.311  68.284  0.00  0.00     0.014 A 
ENDBRANCH   5  19
TORSDOF 3
ENDMDL
MODEL 4
REMARK VINA RESULT:      -7.4      2.507      5.583
REMARK  3 active torsions:
REMARK  status: ('A' for Active; 'I' for Inactive)
REMARK    1  A    between atoms: N_4  and  C_6 
REMARK       I    between atoms: N_4  and  C_14 
REMARK    2  A    between atoms: C_7  and  C_9 
REMARK    3  A    between atoms: C_14  and  C_15 
ROOT
HETATM    1  S   UNK     0      54.528  52.158  72.517  0.00  0.00    -0.062 SA
HETATM    2  N   UNK     0      54.307  54.171  70.945  0.00  0.00    -0.284 N 
HETATM    3  N   UNK     0      52.318  53.166  71.097  0.00  0.00    -0.219 NA
HETATM    4  C   UNK     0      53.481  54.903  70.148  0.00  0.00     0.146 A 
HETATM    5  C   UNK     0      52.260  54.262  70.259  0.00  0.00     0.114 A 
HETATM    6  C   UNK     0      53.566  53.161  71.476  0.00  0.00     0.179 A 
HETATM    7  C   UNK     0      55.629  54.200  71.322  0.00  0.00     0.108 A 
HETATM    8  C   UNK     0      55.922  53.195  72.163  0.00  0.00     0.071 A 
ENDROOT
BRANCH   4   9
HETATM    9  N   UNK     0      53.884  56.006  69.446  0.00  0.00    -0.306 N 
HETATM   10  C   UNK     0      54.381  57.240  69.935  0.00  0.00     0.257 C 
HETATM   11  O   UNK     0      54.539  57.537  71.114  0.00  0.00    -0.267 OA
HETATM   12  H   UNK     0      53.844  55.882  68.439  0.00  0.00     0.170 HD
BRANCH  10  13
HETATM   13  C   UNK     0      54.713  58.267  68.913  0.00  0.00     0.032 A 
HETATM   14  C   UNK     0      55.847  59.032  69.081  0.00  0.00     0.017 A 
HETATM   15  C   UNK     0      56.160  59.994  68.121  0.00  0.00     0.001 A 
HETATM   16  C   UNK     0      55.330  60.169  67.013  0.00  0.00     0.000 A 
HETATM   17  C   UNK     0      54.187  59.381  66.867  0.00  0.00     0.001 A 
HETATM   18  C   UNK     0      53.876  58.419  67.828  0.00  0.00     0.017 A 
ENDBRANCH  10  13
ENDBRANCH   4   9
BRANCH   5  19
HETATM   19  C   UNK     0      51.055  54.671  69.592  0.00  0.00    -0.004 A 
HETATM   20  C   UNK     0      50.283  53.731  68.909  0.00  0.00     0.014 A 
HETATM   21  C   UNK     0      49.113  54.128  68.262  0.00  0.00     0.001 A 
HETATM   22  C   UNK     0      48.716  55.465  68.296  0.00  0.00     0.000 A 
HETATM   23  C   UNK     0      49.490  56.404  68.978  0.00  0.00     0.001 A 
HETATM   24  C   UNK     0      50.660  56.007  69.625  0.00  0.00     0.014 A 
ENDBRANCH   5  19
TORSDOF 3
ENDMDL
MODEL 5
REMARK VINA RESULT:      -7.3      3.271      6.246
REMARK  3 active torsions:
REMARK  status: ('A' for Active; 'I' for Inactive)
REMARK    1  A    between atoms: N_4  and  C_6 
REMARK       I    between atoms: N_4  and  C_14 
REMARK    2  A    between atoms: C_7  and  C_9 
REMARK    3  A    between atoms: C_14  and  C_15 
ROOT
HETATM    1  S   UNK     0      52.989  53.465  73.756  0.00  0.00    -0.062 SA
HETATM    2  N   UNK     0      53.570  54.868  71.690  0.00  0.00    -0.284 N 
HETATM    3  N   UNK     0      53.615  52.708  71.119  0.00  0.00    -0.219 NA
HETATM    4  C   UNK     0      53.901  54.859  70.369  0.00  0.00     0.146 A 
HETATM    5  C   UNK     0      53.923  53.515  70.041  0.00  0.00     0.114 A 
HETATM    6  C   UNK     0      53.415  53.572  72.076  0.00  0.00     0.179 A 
HETATM    7  C   UNK     0      53.367  55.809  72.671  0.00  0.00     0.108 A 
HETATM    8  C   UNK     0      53.046  55.235  73.843  0.00  0.00     0.071 A 
ENDROOT
BRANCH   4   9
HETATM    9  N   UNK     0      54.135  55.992  69.637  0.00  0.00    -0.306 N 
HETATM   10  C   UNK     0      55.228  56.890  69.714  0.00  0.00     0.257 C 
HETATM   11  O   UNK     0      56.184  56.800  70.477  0.00  0.00    -0.267 OA
HETATM   12  H   UNK     0      53.431  56.169  68.927  0.00  0.00     0.170 HD
BRANCH  10  13
HETATM   13  C   UNK     0      55.186  58.058  68.795  0.00  0.00     0.032 A 
HETATM   14  C   UNK     0      56.160  59.027  68.903  0.00  0.00     0.017 A 
HETATM   15  C   UNK     0      56.121  60.121  68.039  0.00  0.00     0.001 A 
HETATM   16  C   UNK     0      55.106  60.221  67.085  0.00  0.00     0.000 A 
HETATM   17  C   UNK     0      54.131  59.226  66.998  0.00  0.00     0.001 A 
HETATM   18  C   UNK     0      54.172  58.132  67.863  0.00  0.00     0.017 A 
ENDBRANCH  10  13
ENDBRANCH   4   9
BRANCH   5  19
HETATM   19  C   UNK     0      54.225  52.994  68.737  0.00  0.00    -0.004 A 
HETATM   20  C   UNK     0      53.463  51.952  68.209  0.00  0.00     0.014 A 
HETATM   21  C   UNK     0      53.755  51.446  66.943  0.00  0.00     0.001 A 
HETATM   22  C   UNK     0      54.810  51.982  66.205  0.00  0.00     0.000 A 
HETATM   23  C   UNK     0      55.573  53.023  66.734  0.00  0.00     0.001 A 
HETATM   24  C   UNK     0      55.280  53.529  68.000  0.00  0.00     0.014 A 
ENDBRANCH   5  19
TORSDOF 3
ENDMDL
MODEL 6
REMARK VINA RESULT:      -7.2      2.899      6.369
REMARK  3 active torsions:
REMARK  status: ('A' for Active; 'I' for Inactive)
REMARK    1  A    between atoms: N_4  and  C_6 
REMARK       I    between atoms: N_4  and  C_14 
REMARK    2  A    between atoms: C_7  and  C_9 
REMARK    3  A    between atoms: C_14  and  C_15 
ROOT
HETATM    1  S   UNK     0      48.864  55.300  72.329  0.00  0.00    -0.062 SA
HETATM    2  N   UNK     0      51.073  56.197  71.387  0.00  0.00    -0.284 N 
HETATM    3  N   UNK     0      51.466  54.230  72.370  0.00  0.00    -0.219 NA
HETATM    4  C   UNK     0      52.408  55.984  71.227  0.00  0.00     0.146 A 
HETATM    5  C   UNK     0      52.626  54.764  71.843  0.00  0.00     0.114 A 
HETATM    6  C   UNK     0      50.572  55.131  72.068  0.00  0.00     0.179 A 
HETATM    7  C   UNK     0      50.161  57.169  71.049  0.00  0.00     0.108 A 
HETATM    8  C   UNK     0      48.926  56.852  71.475  0.00  0.00     0.071 A 
ENDROOT
BRANCH   4   9
HETATM    9  N   UNK     0      53.244  56.855  70.583  0.00  0.00    -0.306 N 
HETATM   10  C   UNK     0      53.296  57.183  69.205  0.00  0.00     0.257 C 
HETATM   11  O   UNK     0      52.572  56.727  68.327  0.00  0.00    -0.267 OA
HETATM   12  H   UNK     0      53.880  57.343  71.206  0.00  0.00     0.170 HD
BRANCH  10  13
HETATM   13  C   UNK     0      54.345  58.155  68.799  0.00  0.00     0.032 A 
HETATM   14  C   UNK     0      54.149  58.915  67.666  0.00  0.00     0.017 A 
HETATM   15  C   UNK     0      55.133  59.827  67.287  0.00  0.00     0.001 A 
HETATM   16  C   UNK     0      56.292  59.961  68.053  0.00  0.00     0.000 A 
HETATM   17  C   UNK     0      56.466  59.179  69.196  0.00  0.00     0.001 A 
HETATM   18  C   UNK     0      55.481  58.267  69.573  0.00  0.00     0.017 A 
ENDBRANCH  10  13
ENDBRANCH   4   9
BRANCH   5  19
HETATM   19  C   UNK     0      53.899  54.107  71.934  0.00  0.00    -0.004 A 
HETATM   20  C   UNK     0      54.564  54.041  73.159  0.00  0.00     0.014 A 
HETATM   21  C   UNK     0      55.800  53.402  73.247  0.00  0.00     0.001 A 
HETATM   22  C   UNK     0      56.373  52.830  72.111  0.00  0.00     0.000 A 
HETATM   23  C   UNK     0      55.708  52.897  70.887  0.00  0.00     0.001 A 
HETATM   24  C   UNK     0      54.472  53.536  70.798  0.00  0.00     0.014 A 
ENDBRANCH   5  19
TORSDOF 3
ENDMDL
MODEL 7
REMARK VINA RESULT:      -7.2      2.618      6.154
REMARK  3 active torsions:
REMARK  status: ('A' for Active; 'I' for Inactive)
REMARK    1  A    between atoms: N_4  and  C_6 
REMARK       I    between atoms: N_4  and  C_14 
REMARK    2  A    between atoms: C_7  and  C_9 
REMARK    3  A    between atoms: C_14  and  C_15 
ROOT
HETATM    1  S   UNK     0      49.043  54.617  70.326  0.00  0.00    -0.062 SA
HETATM    2  N   UNK     0      51.367  55.684  70.139  0.00  0.00    -0.284 N 
HETATM    3  N   UNK     0      51.562  53.740  71.221  0.00  0.00    -0.219 NA
HETATM    4  C   UNK     0      52.693  55.570  70.422  0.00  0.00     0.146 A 
HETATM    5  C   UNK     0      52.787  54.362  71.091  0.00  0.00     0.114 A 
HETATM    6  C   UNK     0      50.751  54.576  70.635  0.00  0.00     0.179 A 
HETATM    7  C   UNK     0      50.545  56.590  69.511  0.00  0.00     0.108 A 
HETATM    8  C   UNK     0      49.265  56.180  69.518  0.00  0.00     0.071 A 
ENDROOT
BRANCH   4   9
HETATM    9  N   UNK     0      53.627  56.506  70.072  0.00  0.00    -0.306 N 
HETATM   10  C   UNK     0      54.291  56.680  68.831  0.00  0.00     0.257 C 
HETATM   11  O   UNK     0      54.132  55.996  67.827  0.00  0.00    -0.267 OA
HETATM   12  H   UNK     0      53.828  57.176  70.809  0.00  0.00     0.170 HD
BRANCH  10  13
HETATM   13  C   UNK     0      55.285  57.784  68.766  0.00  0.00     0.032 A 
HETATM   14  C   UNK     0      56.434  57.692  69.523  0.00  0.00     0.017 A 
HETATM   15  C   UNK     0      57.367  58.726  69.459  0.00  0.00     0.001 A 
HETATM   16  C   UNK     0      57.130  59.830  68.638  0.00  0.00     0.000 A 
HETATM   17  C   UNK     0      55.959  59.898  67.883  0.00  0.00     0.001 A 
HETATM   18  C   UNK     0      55.026  58.863  67.947  0.00  0.00     0.017 A 
ENDBRANCH  10  13
ENDBRANCH   4   9
BRANCH   5  19
HETATM   19  C   UNK     0      54.007  53.799  71.598  0.00  0.00    -0.004 A 
HETATM   20  C   UNK     0      54.335  53.943  72.946  0.00  0.00     0.014 A 
HETATM   21  C   UNK     0      55.519  53.396  73.438  0.00  0.00     0.001 A 
HETATM   22  C   UNK     0      56.376  52.703  72.583  0.00  0.00     0.000 A 
HETATM   23  C   UNK     0      56.048  52.560  71.234  0.00  0.00     0.001 A 
HETATM   24  C   UNK     0      54.864  53.108  70.742  0.00  0.00     0.014 A 
ENDBRANCH   5  19
TORSDOF 3
ENDMDL
MODEL 8
REMARK VINA RESULT:      -7.1      3.728      5.811
REMARK  3 active torsions:
REMARK  status: ('A' for Active; 'I' for Inactive)
REMARK    1  A    between atoms: N_4  and  C_6 
REMARK       I    between atoms: N_4  and  C_14 
REMARK    2  A    between atoms: C_7  and  C_9 
REMARK    3  A    between atoms: C_14  and  C_15 
ROOT
HETATM    1  S   UNK     0      50.313  55.098  70.468  0.00  0.00    -0.062 SA
HETATM    2  N   UNK     0      52.210  54.582  68.823  0.00  0.00    -0.284 N 
HETATM    3  N   UNK     0      52.650  56.528  69.828  0.00  0.00    -0.219 NA
HETATM    4  C   UNK     0      53.393  54.994  68.290  0.00  0.00     0.146 A 
HETATM    5  C   UNK     0      53.643  56.198  68.926  0.00  0.00     0.114 A 
HETATM    6  C   UNK     0      51.821  55.527  69.722  0.00  0.00     0.179 A 
HETATM    7  C   UNK     0      51.362  53.509  68.683  0.00  0.00     0.108 A 
HETATM    8  C   UNK     0      50.293  53.620  69.491  0.00  0.00     0.071 A 
ENDROOT
BRANCH   4   9
HETATM    9  N   UNK     0      54.086  54.290  67.343  0.00  0.00    -0.306 N 
HETATM   10  C   UNK     0      54.958  53.185  67.518  0.00  0.00     0.257 C 
HETATM   11  O   UNK     0      55.247  52.656  68.585  0.00  0.00    -0.267 OA
HETATM   12  H   UNK     0      53.905  54.599  66.393  0.00  0.00     0.170 HD
BRANCH  10  13
HETATM   13  C   UNK     0      55.590  52.645  66.285  0.00  0.00     0.032 A 
HETATM   14  C   UNK     0      54.854  51.815  65.467  0.00  0.00     0.017 A 
HETATM   15  C   UNK     0      55.448  51.310  64.310  0.00  0.00     0.001 A 
HETATM   16  C   UNK     0      56.765  51.650  63.997  0.00  0.00     0.000 A 
HETATM   17  C   UNK     0      57.487  52.492  64.843  0.00  0.00     0.001 A 
HETATM   18  C   UNK     0      56.893  52.996  66.000  0.00  0.00     0.017 A 
ENDBRANCH  10  13
ENDBRANCH   4   9
BRANCH   5  19
HETATM   19  C   UNK     0      54.794  57.024  68.695  0.00  0.00    -0.004 A 
HETATM   20  C   UNK     0      54.633  58.332  68.237  0.00  0.00     0.014 A 
HETATM   21  C   UNK     0      55.751  59.135  68.013  0.00  0.00     0.001 A 
HETATM   22  C   UNK     0      57.030  58.630  68.245  0.00  0.00     0.000 A 
HETATM   23  C   UNK     0      57.191  57.321  68.702  0.00  0.00     0.001 A 
HETATM   24  C   UNK     0      56.073  56.519  68.926  0.00  0.00     0.014 A 
ENDBRANCH   5  19
TORSDOF 3
ENDMDL
MODEL 9
REMARK VINA RESULT:      -7.1     18.673     20.629
REMARK  3 active torsions:
REMARK  status: ('A' for Active; 'I' for Inactive)
REMARK    1  A    between atoms: N_4  and  C_6 
REMARK       I    between atoms: N_4  and  C_14 
REMARK    2  A    between atoms: C_7  and  C_9 
REMARK    3  A    between atoms: C_14  and  C_15 
ROOT
HETATM    1  S   UNK     0      66.475  56.002  49.652  0.00  0.00    -0.062 SA
HETATM    2  N   UNK     0      65.702  54.285  51.391  0.00  0.00    -0.284 N 
HETATM    3  N   UNK     0      67.592  55.230  52.116  0.00  0.00    -0.219 NA
HETATM    4  C   UNK     0      65.955  53.691  52.590  0.00  0.00     0.146 A 
HETATM    5  C   UNK     0      67.127  54.291  53.016  0.00  0.00     0.114 A 
HETATM    6  C   UNK     0      66.701  55.181  51.165  0.00  0.00     0.179 A 
HETATM    7  C   UNK     0      64.741  54.205  50.411  0.00  0.00     0.108 A 
HETATM    8  C   UNK     0      64.997  55.056  49.403  0.00  0.00     0.071 A 
ENDROOT
BRANCH   4   9
HETATM    9  N   UNK     0      65.155  52.730  53.145  0.00  0.00    -0.306 N 
HETATM   10  C   UNK     0      63.897  52.878  53.781  0.00  0.00     0.257 C 
HETATM   11  O   UNK     0      63.292  53.931  53.946  0.00  0.00    -0.267 OA
HETATM   12  H   UNK     0      65.522  51.789  53.042  0.00  0.00     0.170 HD
BRANCH  10  13
HETATM   13  C   UNK     0      63.279  51.635  54.314  0.00  0.00     0.032 A 
HETATM   14  C   UNK     0      62.283  51.020  53.585  0.00  0.00     0.017 A 
HETATM   15  C   UNK     0      61.706  49.853  54.084  0.00  0.00     0.001 A 
HETATM   16  C   UNK     0      62.138  49.326  55.302  0.00  0.00     0.000 A 
HETATM   17  C   UNK     0      63.148  49.969  56.020  0.00  0.00     0.001 A 
HETATM   18  C   UNK     0      63.725  51.136  55.519  0.00  0.00     0.017 A 
ENDBRANCH  10  13
ENDBRANCH   4   9
BRANCH   5  19
HETATM   19  C   UNK     0      67.800  53.992  54.250  0.00  0.00    -0.004 A 
HETATM   20  C   UNK     0      68.885  53.117  54.257  0.00  0.00     0.014 A 
HETATM   21  C   UNK     0      69.539  52.827  55.455  0.00  0.00     0.001 A 
HETATM   22  C   UNK     0      69.106  53.412  56.645  0.00  0.00     0.000 A 
HETATM   23  C   UNK     0      68.020  54.287  56.636  0.00  0.00     0.001 A 
HETATM   24  C   UNK     0      67.366  54.577  55.439  0.00  0.00     0.014 A 
ENDBRANCH   5  19
TORSDOF 3
ENDMDL
