MODEL 1
REMARK VINA RESULT:      -7.2      0.000      0.000
REMARK  2 active torsions:
REMARK  status: ('A' for Active; 'I' for Inactive)
REMARK    1  A    between atoms: N_3  and  N_6 
REMARK    2  A    between atoms: C_12  and  C_13 
ROOT
HETATM    1  S   UNK     0      62.787  73.965  59.625  0.00  0.00    -0.037 SA
HETATM    2  O   UNK     0      64.445  75.392  64.201  0.00  0.00    -0.264 OA
HETATM    3  N   UNK     0      63.653  74.758  62.097  0.00  0.00    -0.167 N 
HETATM    4  N   UNK     0      64.959  73.213  60.920  0.00  0.00    -0.251 N 
HETATM    5  N   UNK     0      65.882  73.136  61.902  0.00  0.00    -0.172 NA
HETATM    6  C   UNK     0      65.711  73.846  62.968  0.00  0.00     0.120 A 
HETATM    7  C   UNK     0      64.531  74.755  63.161  0.00  0.00     0.296 A 
HETATM    8  C   UNK     0      63.828  73.996  60.948  0.00  0.00     0.218 A 
HETATM    9  C   UNK     0      66.719  73.784  64.079  0.00  0.00     0.078 C 
HETATM   10  H   UNK     0      65.156  72.628  60.113  0.00  0.00     0.191 HD
ENDROOT
BRANCH   3  11
HETATM   11  N   UNK     0      62.558  75.560  62.203  0.00  0.00    -0.172 NA
HETATM   12  C   UNK     0      61.598  75.035  62.892  0.00  0.00     0.171 C 
BRANCH  12  13
HETATM   13  C   UNK     0      60.326  75.743  63.124  0.00  0.00     0.075 A 
HETATM   14  N   UNK     0      59.325  75.391  62.301  0.00  0.00    -0.260 NA
HETATM   15  C   UNK     0      58.152  76.033  62.503  0.00  0.00     0.117 A 
HETATM   16  C   UNK     0      57.952  76.995  63.479  0.00  0.00     0.019 A 
HETATM   17  C   UNK     0      59.024  77.319  64.302  0.00  0.00     0.004 A 
HETATM   18  C   UNK     0      60.246  76.680  64.127  0.00  0.00     0.033 A 
ENDBRANCH  12  13
ENDBRANCH   3  11
TORSDOF 2
ENDMDL
MODEL 2
REMARK VINA RESULT:      -6.9      2.104      2.346
REMARK  2 active torsions:
REMARK  status: ('A' for Active; 'I' for Inactive)
REMARK    1  A    between atoms: N_3  and  N_6 
REMARK    2  A    between atoms: C_12  and  C_13 
ROOT
HETATM    1  S   UNK     0      62.725  73.306  65.978  0.00  0.00    -0.037 SA
HETATM    2  O   UNK     0      64.551  75.268  61.673  0.00  0.00    -0.264 OA
HETATM    3  N   UNK     0      63.682  74.388  63.654  0.00  0.00    -0.167 N 
HETATM    4  N   UNK     0      64.864  72.604  64.602  0.00  0.00    -0.251 N 
HETATM    5  N   UNK     0      65.794  72.606  63.624  0.00  0.00    -0.172 NA
HETATM    6  C   UNK     0      65.689  73.475  62.673  0.00  0.00     0.120 A 
HETATM    7  C   UNK     0      64.576  74.481  62.606  0.00  0.00     0.296 A 
HETATM    8  C   UNK     0      63.788  73.458  64.681  0.00  0.00     0.218 A 
HETATM    9  C   UNK     0      66.707  73.505  61.570  0.00  0.00     0.078 C 
HETATM   10  H   UNK     0      65.008  71.897  65.316  0.00  0.00     0.191 HD
ENDROOT
BRANCH   3  11
HETATM   11  N   UNK     0      62.645  75.270  63.659  0.00  0.00    -0.172 NA
HETATM   12  C   UNK     0      61.584  74.825  63.067  0.00  0.00     0.171 C 
BRANCH  12  13
HETATM   13  C   UNK     0      60.352  75.627  62.965  0.00  0.00     0.075 A 
HETATM   14  N   UNK     0      59.276  74.956  62.522  0.00  0.00    -0.260 NA
HETATM   15  C   UNK     0      58.138  75.680  62.421  0.00  0.00     0.117 A 
HETATM   16  C   UNK     0      58.044  77.025  62.743  0.00  0.00     0.019 A 
HETATM   17  C   UNK     0      59.190  77.667  63.197  0.00  0.00     0.004 A 
HETATM   18  C   UNK     0      60.379  76.957  63.314  0.00  0.00     0.033 A 
ENDBRANCH  12  13
ENDBRANCH   3  11
TORSDOF 2
ENDMDL
MODEL 3
REMARK VINA RESULT:      -6.7      2.581      6.376
REMARK  2 active torsions:
REMARK  status: ('A' for Active; 'I' for Inactive)
REMARK    1  A    between atoms: N_3  and  N_6 
REMARK    2  A    between atoms: C_12  and  C_13 
ROOT
HETATM    1  S   UNK     0      60.449  71.800  64.969  0.00  0.00    -0.037 SA
HETATM    2  O   UNK     0      60.285  76.125  62.326  0.00  0.00    -0.264 OA
HETATM    3  N   UNK     0      60.392  74.125  63.527  0.00  0.00    -0.167 N 
HETATM    4  N   UNK     0      58.688  73.761  65.090  0.00  0.00    -0.251 N 
HETATM    5  N   UNK     0      58.083  74.936  64.812  0.00  0.00    -0.172 NA
HETATM    6  C   UNK     0      58.606  75.702  63.912  0.00  0.00     0.120 A 
HETATM    7  C   UNK     0      59.858  75.344  63.163  0.00  0.00     0.296 A 
HETATM    8  C   UNK     0      59.835  73.294  64.492  0.00  0.00     0.218 A 
HETATM    9  C   UNK     0      57.959  77.015  63.578  0.00  0.00     0.078 C 
HETATM   10  H   UNK     0      58.224  73.209  65.805  0.00  0.00     0.191 HD
ENDROOT
BRANCH   3  11
HETATM   11  N   UNK     0      61.529  73.734  62.888  0.00  0.00    -0.172 NA
HETATM   12  C   UNK     0      62.588  74.358  63.290  0.00  0.00     0.171 C 
BRANCH  12  13
HETATM   13  C   UNK     0      63.920  74.081  62.724  0.00  0.00     0.075 A 
HETATM   14  N   UNK     0      64.385  72.842  62.953  0.00  0.00    -0.260 NA
HETATM   15  C   UNK     0      65.608  72.574  62.440  0.00  0.00     0.117 A 
HETATM   16  C   UNK     0      66.364  73.486  61.721  0.00  0.00     0.019 A 
HETATM   17  C   UNK     0      65.831  74.753  61.515  0.00  0.00     0.004 A 
HETATM   18  C   UNK     0      64.578  75.067  62.026  0.00  0.00     0.033 A 
ENDBRANCH  12  13
ENDBRANCH   3  11
TORSDOF 2
ENDMDL
MODEL 4
REMARK VINA RESULT:      -6.6     21.356     21.829
REMARK  2 active torsions:
REMARK  status: ('A' for Active; 'I' for Inactive)
REMARK    1  A    between atoms: N_3  and  N_6 
REMARK    2  A    between atoms: C_12  and  C_13 
ROOT
HETATM    1  S   UNK     0      51.949  54.810  69.007  0.00  0.00    -0.037 SA
HETATM    2  O   UNK     0      56.022  55.875  71.834  0.00  0.00    -0.264 OA
HETATM    3  N   UNK     0      54.147  55.418  70.519  0.00  0.00    -0.167 N 
HETATM    4  N   UNK     0      53.291  53.244  70.654  0.00  0.00    -0.251 N 
HETATM    5  N   UNK     0      54.229  52.852  71.541  0.00  0.00    -0.172 NA
HETATM    6  C   UNK     0      55.116  53.711  71.923  0.00  0.00     0.120 A 
HETATM    7  C   UNK     0      55.150  55.127  71.421  0.00  0.00     0.296 A 
HETATM    8  C   UNK     0      53.189  54.502  70.104  0.00  0.00     0.218 A 
HETATM    9  C   UNK     0      56.174  53.308  72.909  0.00  0.00     0.078 C 
HETATM   10  H   UNK     0      52.626  52.520  70.398  0.00  0.00     0.191 HD
ENDROOT
BRANCH   3  11
HETATM   11  N   UNK     0      54.116  56.685  70.021  0.00  0.00    -0.172 NA
HETATM   12  C   UNK     0      54.862  56.850  68.978  0.00  0.00     0.171 C 
BRANCH  12  13
HETATM   13  C   UNK     0      54.967  58.149  68.289  0.00  0.00     0.075 A 
HETATM   14  N   UNK     0      55.954  58.945  68.731  0.00  0.00    -0.260 NA
HETATM   15  C   UNK     0      56.061  60.141  68.108  0.00  0.00     0.117 A 
HETATM   16  C   UNK     0      55.230  60.557  67.080  0.00  0.00     0.019 A 
HETATM   17  C   UNK     0      54.226  59.691  66.664  0.00  0.00     0.004 A 
HETATM   18  C   UNK     0      54.084  58.453  67.279  0.00  0.00     0.033 A 
ENDBRANCH  12  13
ENDBRANCH   3  11
TORSDOF 2
ENDMDL
MODEL 5
REMARK VINA RESULT:      -6.5     21.623     21.968
REMARK  2 active torsions:
REMARK  status: ('A' for Active; 'I' for Inactive)
REMARK    1  A    between atoms: N_3  and  N_6 
REMARK    2  A    between atoms: C_12  and  C_13 
ROOT
HETATM    1  S   UNK     0      54.469  53.407  67.508  0.00  0.00    -0.037 SA
HETATM    2  O   UNK     0      55.636  55.388  72.029  0.00  0.00    -0.264 OA
HETATM    3  N   UNK     0      55.090  54.509  69.935  0.00  0.00    -0.167 N 
HETATM    4  N   UNK     0      55.409  52.207  69.662  0.00  0.00    -0.251 N 
HETATM    5  N   UNK     0      55.864  52.047  70.923  0.00  0.00    -0.172 NA
HETATM    6  C   UNK     0      55.936  53.084  71.689  0.00  0.00     0.120 A 
HETATM    7  C   UNK     0      55.538  54.461  71.239  0.00  0.00     0.296 A 
HETATM    8  C   UNK     0      55.008  53.399  69.104  0.00  0.00     0.218 A 
HETATM    9  C   UNK     0      56.437  52.942  73.098  0.00  0.00     0.078 C 
HETATM   10  H   UNK     0      55.378  51.351  69.115  0.00  0.00     0.191 HD
ENDROOT
BRANCH   3  11
HETATM   11  N   UNK     0      54.712  55.727  69.458  0.00  0.00    -0.172 NA
HETATM   12  C   UNK     0      55.687  56.410  68.952  0.00  0.00     0.171 C 
BRANCH  12  13
HETATM   13  C   UNK     0      55.486  57.755  68.382  0.00  0.00     0.075 A 
HETATM   14  N   UNK     0      56.490  58.618  68.602  0.00  0.00    -0.260 NA
HETATM   15  C   UNK     0      56.319  59.856  68.086  0.00  0.00     0.117 A 
HETATM   16  C   UNK     0      55.199  60.250  67.372  0.00  0.00     0.019 A 
HETATM   17  C   UNK     0      54.190  59.314  67.175  0.00  0.00     0.004 A 
HETATM   18  C   UNK     0      54.330  58.030  67.690  0.00  0.00     0.033 A 
ENDBRANCH  12  13
ENDBRANCH   3  11
TORSDOF 2
ENDMDL
MODEL 6
REMARK VINA RESULT:      -6.1     21.338     21.880
REMARK  2 active torsions:
REMARK  status: ('A' for Active; 'I' for Inactive)
REMARK    1  A    between atoms: N_3  and  N_6 
REMARK    2  A    between atoms: C_12  and  C_13 
ROOT
HETATM    1  S   UNK     0      54.947  55.295  71.874  0.00  0.00    -0.037 SA
HETATM    2  O   UNK     0      54.430  58.358  67.866  0.00  0.00    -0.264 OA
HETATM    3  N   UNK     0      54.643  56.925  69.698  0.00  0.00    -0.167 N 
HETATM    4  N   UNK     0      56.271  57.498  71.278  0.00  0.00    -0.251 N 
HETATM    5  N   UNK     0      56.650  58.600  70.596  0.00  0.00    -0.172 NA
HETATM    6  C   UNK     0      56.048  58.876  69.486  0.00  0.00     0.120 A 
HETATM    7  C   UNK     0      54.947  58.025  68.921  0.00  0.00     0.296 A 
HETATM    8  C   UNK     0      55.283  56.622  70.893  0.00  0.00     0.218 A 
HETATM    9  C   UNK     0      56.444  60.094  68.702  0.00  0.00     0.078 C 
HETATM   10  H   UNK     0      56.784  57.342  72.141  0.00  0.00     0.191 HD
ENDROOT
BRANCH   3  11
HETATM   11  N   UNK     0      53.652  56.107  69.246  0.00  0.00    -0.172 NA
HETATM   12  C   UNK     0      52.463  56.531  69.528  0.00  0.00     0.171 C 
BRANCH  12  13
HETATM   13  C   UNK     0      51.254  55.789  69.127  0.00  0.00     0.075 A 
HETATM   14  N   UNK     0      50.192  56.556  68.832  0.00  0.00    -0.260 NA
HETATM   15  C   UNK     0      49.075  55.888  68.464  0.00  0.00     0.117 A 
HETATM   16  C   UNK     0      48.988  54.508  68.383  0.00  0.00     0.019 A 
HETATM   17  C   UNK     0      50.119  53.765  68.699  0.00  0.00     0.004 A 
HETATM   18  C   UNK     0      51.287  54.415  69.082  0.00  0.00     0.033 A 
ENDBRANCH  12  13
ENDBRANCH   3  11
TORSDOF 2
ENDMDL
MODEL 7
REMARK VINA RESULT:      -6.0     21.803     22.503
REMARK  2 active torsions:
REMARK  status: ('A' for Active; 'I' for Inactive)
REMARK    1  A    between atoms: N_3  and  N_6 
REMARK    2  A    between atoms: C_12  and  C_13 
ROOT
HETATM    1  S   UNK     0      52.144  55.761  69.030  0.00  0.00    -0.037 SA
HETATM    2  O   UNK     0      56.965  57.317  68.793  0.00  0.00    -0.264 OA
HETATM    3  N   UNK     0      54.756  56.568  68.914  0.00  0.00    -0.167 N 
HETATM    4  N   UNK     0      53.101  58.125  68.353  0.00  0.00    -0.251 N 
HETATM    5  N   UNK     0      54.001  59.099  68.101  0.00  0.00    -0.172 NA
HETATM    6  C   UNK     0      55.257  58.832  68.245  0.00  0.00     0.120 A 
HETATM    7  C   UNK     0      55.761  57.486  68.683  0.00  0.00     0.296 A 
HETATM    8  C   UNK     0      53.404  56.846  68.760  0.00  0.00     0.218 A 
HETATM    9  C   UNK     0      56.285  59.893  67.972  0.00  0.00     0.078 C 
HETATM   10  H   UNK     0      52.133  58.403  68.219  0.00  0.00     0.191 HD
ENDROOT
BRANCH   3  11
HETATM   11  N   UNK     0      55.139  55.324  69.314  0.00  0.00    -0.172 NA
HETATM   12  C   UNK     0      55.263  55.209  70.597  0.00  0.00     0.171 C 
BRANCH  12  13
HETATM   13  C   UNK     0      55.669  53.943  71.232  0.00  0.00     0.075 A 
HETATM   14  N   UNK     0      56.050  54.050  72.515  0.00  0.00    -0.260 NA
HETATM   15  C   UNK     0      56.426  52.896  73.110  0.00  0.00     0.117 A 
HETATM   16  C   UNK     0      56.434  51.663  72.477  0.00  0.00     0.019 A 
HETATM   17  C   UNK     0      56.030  51.613  71.148  0.00  0.00     0.004 A 
HETATM   18  C   UNK     0      55.635  52.778  70.502  0.00  0.00     0.033 A 
ENDBRANCH  12  13
ENDBRANCH   3  11
TORSDOF 2
ENDMDL
MODEL 8
REMARK VINA RESULT:      -6.0      3.454      7.511
REMARK  2 active torsions:
REMARK  status: ('A' for Active; 'I' for Inactive)
REMARK    1  A    between atoms: N_3  and  N_6 
REMARK    2  A    between atoms: C_12  and  C_13 
ROOT
HETATM    1  S   UNK     0      65.333  75.490  60.818  0.00  0.00    -0.037 SA
HETATM    2  O   UNK     0      65.369  72.556  64.954  0.00  0.00    -0.264 OA
HETATM    3  N   UNK     0      65.385  73.893  63.040  0.00  0.00    -0.167 N 
HETATM    4  N   UNK     0      63.489  75.220  62.686  0.00  0.00    -0.251 N 
HETATM    5  N   UNK     0      62.880  74.776  63.806  0.00  0.00    -0.172 NA
HETATM    6  C   UNK     0      63.495  73.909  64.541  0.00  0.00     0.120 A 
HETATM    7  C   UNK     0      64.857  73.373  64.204  0.00  0.00     0.296 A 
HETATM    8  C   UNK     0      64.732  74.827  62.244  0.00  0.00     0.218 A 
HETATM    9  C   UNK     0      62.846  73.393  65.793  0.00  0.00     0.078 C 
HETATM   10  H   UNK     0      62.951  75.900  62.157  0.00  0.00     0.191 HD
ENDROOT
BRANCH   3  11
HETATM   11  N   UNK     0      66.619  73.452  62.671  0.00  0.00    -0.172 NA
HETATM   12  C   UNK     0      67.587  74.064  63.273  0.00  0.00     0.171 C 
BRANCH  12  13
HETATM   13  C   UNK     0      69.000  73.734  63.014  0.00  0.00     0.075 A 
HETATM   14  N   UNK     0      69.310  72.434  63.144  0.00  0.00    -0.260 NA
HETATM   15  C   UNK     0      70.604  72.116  62.911  0.00  0.00     0.117 A 
HETATM   16  C   UNK     0      71.577  73.037  62.559  0.00  0.00     0.019 A 
HETATM   17  C   UNK     0      71.198  74.369  62.439  0.00  0.00     0.004 A 
HETATM   18  C   UNK     0      69.878  74.735  62.671  0.00  0.00     0.033 A 
ENDBRANCH  12  13
ENDBRANCH   3  11
TORSDOF 2
ENDMDL
MODEL 9
REMARK VINA RESULT:      -5.9     22.958     24.636
REMARK  2 active torsions:
REMARK  status: ('A' for Active; 'I' for Inactive)
REMARK    1  A    between atoms: N_3  and  N_6 
REMARK    2  A    between atoms: C_12  and  C_13 
ROOT
HETATM    1  S   UNK     0      63.676  54.800  53.089  0.00  0.00    -0.037 SA
HETATM    2  O   UNK     0      66.735  51.406  55.288  0.00  0.00    -0.264 OA
HETATM    3  N   UNK     0      65.303  52.942  54.267  0.00  0.00    -0.167 N 
HETATM    4  N   UNK     0      65.952  55.189  54.365  0.00  0.00    -0.251 N 
HETATM    5  N   UNK     0      67.078  54.908  55.056  0.00  0.00    -0.172 NA
HETATM    6  C   UNK     0      67.329  53.676  55.354  0.00  0.00     0.120 A 
HETATM    7  C   UNK     0      66.423  52.542  54.968  0.00  0.00     0.296 A 
HETATM    8  C   UNK     0      65.026  54.264  53.940  0.00  0.00     0.218 A 
HETATM    9  C   UNK     0      68.572  53.329  56.122  0.00  0.00     0.078 C 
HETATM   10  H   UNK     0      65.818  56.175  54.164  0.00  0.00     0.191 HD
ENDROOT
BRANCH   3  11
HETATM   11  N   UNK     0      64.435  51.966  53.883  0.00  0.00    -0.172 NA
HETATM   12  C   UNK     0      63.489  51.750  54.737  0.00  0.00     0.171 C 
BRANCH  12  13
HETATM   13  C   UNK     0      62.446  50.733  54.509  0.00  0.00     0.075 A 
HETATM   14  N   UNK     0      62.164  50.494  53.218  0.00  0.00    -0.260 NA
HETATM   15  C   UNK     0      61.209  49.563  52.993  0.00  0.00     0.117 A 
HETATM   16  C   UNK     0      60.541  48.880  53.996  0.00  0.00     0.019 A 
HETATM   17  C   UNK     0      60.875  49.169  55.314  0.00  0.00     0.004 A 
HETATM   18  C   UNK     0      61.852  50.119  55.586  0.00  0.00     0.033 A 
ENDBRANCH  12  13
ENDBRANCH   3  11
TORSDOF 2
ENDMDL
