MODEL 1
REMARK VINA RESULT:      -6.3      0.000      0.000
REMARK  11 active torsions:
REMARK  status: ('A' for Active; 'I' for Inactive)
REMARK    1  A    between atoms: O_1  and  C_11 
REMARK    2  A    between atoms: O_1  and  C_13 
REMARK    3  A    between atoms: O_2  and  C_20 
REMARK    4  A    between atoms: N_3  and  C_15 
REMARK    5  A    between atoms: N_3  and  C_19 
REMARK    6  A    between atoms: C_4  and  C_5 
REMARK    7  A    between atoms: C_9  and  C_10 
REMARK    8  A    between atoms: C_9  and  C_12 
REMARK    9  A    between atoms: C_10  and  C_13 
REMARK   10  A    between atoms: C_12  and  C_15 
REMARK   11  A    between atoms: C_19  and  C_20 
ROOT
HETATM    1  O   UNK     0      61.880  75.403  64.035  0.00  0.00    -0.351 OA
ENDROOT
BRANCH   1   2
HETATM    2  C   UNK     0      60.516  75.496  64.149  0.00  0.00     0.075 A 
HETATM    3  C   UNK     0      59.741  74.362  64.385  0.00  0.00    -0.017 A 
HETATM    4  C   UNK     0      58.354  74.475  64.498  0.00  0.00     0.011 A 
HETATM    5  C   UNK     0      57.745  75.724  64.374  0.00  0.00     0.001 A 
HETATM    6  C   UNK     0      58.521  76.859  64.137  0.00  0.00     0.003 A 
HETATM    7  C   UNK     0      59.907  76.745  64.024  0.00  0.00     0.037 A 
BRANCH   3   8
HETATM    8  C   UNK     0      60.376  73.018  64.521  0.00  0.00    -0.021 C 
HETATM    9  C   UNK     0      60.964  72.532  63.160  0.00  0.00     0.019 C 
HETATM   10  C   UNK     0      59.345  71.950  64.997  0.00  0.00     0.019 C 
HETATM   11  C   UNK     0      61.561  72.938  65.539  0.00  0.00     0.019 C 
ENDBRANCH   3   8
ENDBRANCH   1   2
BRANCH   1  12
HETATM   12  C   UNK     0      62.469  75.990  62.884  0.00  0.00     0.175 C 
BRANCH  12  13
HETATM   13  C   UNK     0      63.464  75.022  62.257  0.00  0.00     0.027 C 
BRANCH  13  14
HETATM   14  C   UNK     0      64.613  74.673  63.208  0.00  0.00     0.004 C 
BRANCH  14  15
HETATM   15  C   UNK     0      64.598  73.188  63.575  0.00  0.00     0.030 C 
BRANCH  15  16
HETATM   16  C   UNK     0      65.936  72.526  63.249  0.00  0.00     0.269 C 
BRANCH  16  17
HETATM   17  N   UNK     0      66.053  72.301  61.813  0.00  0.00     0.085 N 
HETATM   18  H   UNK     0      65.707  73.116  61.307  0.00  0.00     0.315 HD
BRANCH  17  19
HETATM   19  C   UNK     0      67.437  72.041  61.439  0.00  0.00     0.295 C 
BRANCH  19  20
HETATM   20  C   UNK     0      68.385  72.486  62.541  0.00  0.00     0.194 C 
BRANCH  20  21
HETATM   21  O   UNK     0      69.195  71.382  62.920  0.00  0.00    -0.399 OA
HETATM   22  H   UNK     0      68.746  70.939  63.660  0.00  0.00     0.209 HD
ENDBRANCH  20  21
ENDBRANCH  19  20
ENDBRANCH  17  19
ENDBRANCH  16  17
ENDBRANCH  15  16
ENDBRANCH  14  15
ENDBRANCH  13  14
ENDBRANCH  12  13
ENDBRANCH   1  12
TORSDOF 11
ENDMDL
MODEL 2
REMARK VINA RESULT:      -6.3     17.695     20.431
REMARK  11 active torsions:
REMARK  status: ('A' for Active; 'I' for Inactive)
REMARK    1  A    between atoms: O_1  and  C_11 
REMARK    2  A    between atoms: O_1  and  C_13 
REMARK    3  A    between atoms: O_2  and  C_20 
REMARK    4  A    between atoms: N_3  and  C_15 
REMARK    5  A    between atoms: N_3  and  C_19 
REMARK    6  A    between atoms: C_4  and  C_5 
REMARK    7  A    between atoms: C_9  and  C_10 
REMARK    8  A    between atoms: C_9  and  C_12 
REMARK    9  A    between atoms: C_10  and  C_13 
REMARK   10  A    between atoms: C_12  and  C_15 
REMARK   11  A    between atoms: C_19  and  C_20 
ROOT
HETATM    1  O   UNK     0      54.382  56.866  67.850  0.00  0.00    -0.351 OA
ENDROOT
BRANCH   1   2
HETATM    2  C   UNK     0      54.712  58.189  67.695  0.00  0.00     0.075 A 
HETATM    3  C   UNK     0      55.834  58.724  68.328  0.00  0.00    -0.017 A 
HETATM    4  C   UNK     0      56.154  60.071  68.160  0.00  0.00     0.011 A 
HETATM    5  C   UNK     0      55.352  60.883  67.358  0.00  0.00     0.001 A 
HETATM    6  C   UNK     0      54.229  60.349  66.725  0.00  0.00     0.003 A 
HETATM    7  C   UNK     0      53.909  59.001  66.893  0.00  0.00     0.037 A 
BRANCH   3   8
HETATM    8  C   UNK     0      56.703  57.869  69.189  0.00  0.00    -0.021 C 
HETATM    9  C   UNK     0      57.867  58.698  69.814  0.00  0.00     0.019 C 
HETATM   10  C   UNK     0      57.341  56.706  68.370  0.00  0.00     0.019 C 
HETATM   11  C   UNK     0      55.983  57.185  70.398  0.00  0.00     0.019 C 
ENDBRANCH   3   8
ENDBRANCH   1   2
BRANCH   1  12
HETATM   12  C   UNK     0      53.203  56.582  68.589  0.00  0.00     0.175 C 
BRANCH  12  13
HETATM   13  C   UNK     0      53.088  55.082  68.828  0.00  0.00     0.027 C 
BRANCH  13  14
HETATM   14  C   UNK     0      54.068  54.280  67.967  0.00  0.00     0.004 C 
BRANCH  14  15
HETATM   15  C   UNK     0      54.959  53.383  68.829  0.00  0.00     0.030 C 
BRANCH  15  16
HETATM   16  C   UNK     0      54.748  53.661  70.316  0.00  0.00     0.269 C 
BRANCH  16  17
HETATM   17  N   UNK     0      54.609  52.409  71.050  0.00  0.00     0.085 N 
HETATM   18  H   UNK     0      55.190  51.690  70.620  0.00  0.00     0.315 HD
BRANCH  17  19
HETATM   19  C   UNK     0      54.990  52.580  72.446  0.00  0.00     0.295 C 
BRANCH  19  20
HETATM   20  C   UNK     0      56.499  52.493  72.605  0.00  0.00     0.194 C 
BRANCH  20  21
HETATM   21  O   UNK     0      56.905  53.407  73.614  0.00  0.00    -0.399 OA
HETATM   22  H   UNK     0      56.132  53.567  74.182  0.00  0.00     0.209 HD
ENDBRANCH  20  21
ENDBRANCH  19  20
ENDBRANCH  17  19
ENDBRANCH  16  17
ENDBRANCH  15  16
ENDBRANCH  14  15
ENDBRANCH  13  14
ENDBRANCH  12  13
ENDBRANCH   1  12
TORSDOF 11
ENDMDL
MODEL 3
REMARK VINA RESULT:      -5.9      1.512      2.054
REMARK  11 active torsions:
REMARK  status: ('A' for Active; 'I' for Inactive)
REMARK    1  A    between atoms: O_1  and  C_11 
REMARK    2  A    between atoms: O_1  and  C_13 
REMARK    3  A    between atoms: O_2  and  C_20 
REMARK    4  A    between atoms: N_3  and  C_15 
REMARK    5  A    between atoms: N_3  and  C_19 
REMARK    6  A    between atoms: C_4  and  C_5 
REMARK    7  A    between atoms: C_9  and  C_10 
REMARK    8  A    between atoms: C_9  and  C_12 
REMARK    9  A    between atoms: C_10  and  C_13 
REMARK   10  A    between atoms: C_12  and  C_15 
REMARK   11  A    between atoms: C_19  and  C_20 
ROOT
HETATM    1  O   UNK     0      61.085  75.253  62.190  0.00  0.00    -0.351 OA
ENDROOT
BRANCH   1   2
HETATM    2  C   UNK     0      59.950  75.441  62.938  0.00  0.00     0.075 A 
HETATM    3  C   UNK     0      59.590  74.528  63.930  0.00  0.00    -0.017 A 
HETATM    4  C   UNK     0      58.432  74.735  64.681  0.00  0.00     0.011 A 
HETATM    5  C   UNK     0      57.635  75.854  64.440  0.00  0.00     0.001 A 
HETATM    6  C   UNK     0      57.995  76.766  63.447  0.00  0.00     0.003 A 
HETATM    7  C   UNK     0      59.152  76.559  62.696  0.00  0.00     0.037 A 
BRANCH   3   8
HETATM    8  C   UNK     0      60.432  73.326  64.202  0.00  0.00    -0.021 C 
HETATM    9  C   UNK     0      59.601  72.200  64.892  0.00  0.00     0.019 C 
HETATM   10  C   UNK     0      61.626  73.673  65.142  0.00  0.00     0.019 C 
HETATM   11  C   UNK     0      61.073  72.658  62.941  0.00  0.00     0.019 C 
ENDBRANCH   3   8
ENDBRANCH   1   2
BRANCH   1  12
HETATM   12  C   UNK     0      62.174  76.126  62.450  0.00  0.00     0.175 C 
BRANCH  12  13
HETATM   13  C   UNK     0      63.487  75.355  62.381  0.00  0.00     0.027 C 
BRANCH  13  14
HETATM   14  C   UNK     0      64.289  75.686  61.120  0.00  0.00     0.004 C 
BRANCH  14  15
HETATM   15  C   UNK     0      64.933  74.432  60.525  0.00  0.00     0.030 C 
BRANCH  15  16
HETATM   16  C   UNK     0      64.685  73.212  61.411  0.00  0.00     0.269 C 
BRANCH  16  17
HETATM   17  N   UNK     0      65.930  72.488  61.636  0.00  0.00     0.085 N 
HETATM   18  H   UNK     0      66.452  72.419  60.762  0.00  0.00     0.315 HD
BRANCH  17  19
HETATM   19  C   UNK     0      66.744  73.155  62.643  0.00  0.00     0.295 C 
BRANCH  19  20
HETATM   20  C   UNK     0      66.055  73.125  63.997  0.00  0.00     0.194 C 
BRANCH  20  21
HETATM   21  O   UNK     0      66.175  74.406  64.600  0.00  0.00    -0.399 OA
HETATM   22  H   UNK     0      66.714  74.952  64.003  0.00  0.00     0.209 HD
ENDBRANCH  20  21
ENDBRANCH  19  20
ENDBRANCH  17  19
ENDBRANCH  16  17
ENDBRANCH  15  16
ENDBRANCH  14  15
ENDBRANCH  13  14
ENDBRANCH  12  13
ENDBRANCH   1  12
TORSDOF 11
ENDMDL
MODEL 4
REMARK VINA RESULT:      -5.9     17.418     20.222
REMARK  11 active torsions:
REMARK  status: ('A' for Active; 'I' for Inactive)
REMARK    1  A    between atoms: O_1  and  C_11 
REMARK    2  A    between atoms: O_1  and  C_13 
REMARK    3  A    between atoms: O_2  and  C_20 
REMARK    4  A    between atoms: N_3  and  C_15 
REMARK    5  A    between atoms: N_3  and  C_19 
REMARK    6  A    between atoms: C_4  and  C_5 
REMARK    7  A    between atoms: C_9  and  C_10 
REMARK    8  A    between atoms: C_9  and  C_12 
REMARK    9  A    between atoms: C_10  and  C_13 
REMARK   10  A    between atoms: C_12  and  C_15 
REMARK   11  A    between atoms: C_19  and  C_20 
ROOT
HETATM    1  O   UNK     0      54.398  56.995  68.489  0.00  0.00    -0.351 OA
ENDROOT
BRANCH   1   2
HETATM    2  C   UNK     0      54.725  58.222  67.969  0.00  0.00     0.075 A 
HETATM    3  C   UNK     0      55.886  58.881  68.372  0.00  0.00    -0.017 A 
HETATM    4  C   UNK     0      56.203  60.129  67.833  0.00  0.00     0.011 A 
HETATM    5  C   UNK     0      55.358  60.716  66.892  0.00  0.00     0.001 A 
HETATM    6  C   UNK     0      54.196  60.057  66.489  0.00  0.00     0.003 A 
HETATM    7  C   UNK     0      53.880  58.810  67.028  0.00  0.00     0.037 A 
BRANCH   3   8
HETATM    8  C   UNK     0      56.802  58.266  69.378  0.00  0.00    -0.021 C 
HETATM    9  C   UNK     0      58.090  59.126  69.568  0.00  0.00     0.019 C 
HETATM   10  C   UNK     0      57.249  56.840  68.938  0.00  0.00     0.019 C 
HETATM   11  C   UNK     0      56.202  58.093  70.812  0.00  0.00     0.019 C 
ENDBRANCH   3   8
ENDBRANCH   1   2
BRANCH   1  12
HETATM   12  C   UNK     0      53.021  56.650  68.498  0.00  0.00     0.175 C 
BRANCH  12  13
HETATM   13  C   UNK     0      52.718  55.748  69.689  0.00  0.00     0.027 C 
BRANCH  13  14
HETATM   14  C   UNK     0      52.608  56.534  70.998  0.00  0.00     0.004 C 
BRANCH  14  15
HETATM   15  C   UNK     0      53.447  55.891  72.104  0.00  0.00     0.030 C 
BRANCH  15  16
HETATM   16  C   UNK     0      54.542  55.000  71.520  0.00  0.00     0.269 C 
BRANCH  16  17
HETATM   17  N   UNK     0      54.612  53.739  72.248  0.00  0.00     0.085 N 
HETATM   18  H   UNK     0      53.698  53.286  72.240  0.00  0.00     0.315 HD
BRANCH  17  19
HETATM   19  C   UNK     0      55.607  52.853  71.660  0.00  0.00     0.295 C 
BRANCH  19  20
HETATM   20  C   UNK     0      56.535  52.301  72.730  0.00  0.00     0.194 C 
BRANCH  20  21
HETATM   21  O   UNK     0      57.004  53.378  73.529  0.00  0.00    -0.399 OA
HETATM   22  H   UNK     0      57.792  53.738  73.088  0.00  0.00     0.209 HD
ENDBRANCH  20  21
ENDBRANCH  19  20
ENDBRANCH  17  19
ENDBRANCH  16  17
ENDBRANCH  15  16
ENDBRANCH  14  15
ENDBRANCH  13  14
ENDBRANCH  12  13
ENDBRANCH   1  12
TORSDOF 11
ENDMDL
MODEL 5
REMARK VINA RESULT:      -5.8      2.235      3.017
REMARK  11 active torsions:
REMARK  status: ('A' for Active; 'I' for Inactive)
REMARK    1  A    between atoms: O_1  and  C_11 
REMARK    2  A    between atoms: O_1  and  C_13 
REMARK    3  A    between atoms: O_2  and  C_20 
REMARK    4  A    between atoms: N_3  and  C_15 
REMARK    5  A    between atoms: N_3  and  C_19 
REMARK    6  A    between atoms: C_4  and  C_5 
REMARK    7  A    between atoms: C_9  and  C_10 
REMARK    8  A    between atoms: C_9  and  C_12 
REMARK    9  A    between atoms: C_10  and  C_13 
REMARK   10  A    between atoms: C_12  and  C_15 
REMARK   11  A    between atoms: C_19  and  C_20 
ROOT
HETATM    1  O   UNK     0      61.801  74.613  63.126  0.00  0.00    -0.351 OA
ENDROOT
BRANCH   1   2
HETATM    2  C   UNK     0      60.530  74.967  63.501  0.00  0.00     0.075 A 
HETATM    3  C   UNK     0      59.716  74.071  64.195  0.00  0.00    -0.017 A 
HETATM    4  C   UNK     0      58.425  74.448  64.568  0.00  0.00     0.011 A 
HETATM    5  C   UNK     0      57.950  75.719  64.248  0.00  0.00     0.001 A 
HETATM    6  C   UNK     0      58.764  76.614  63.553  0.00  0.00     0.003 A 
HETATM    7  C   UNK     0      60.054  76.238  63.180  0.00  0.00     0.037 A 
BRANCH   3   8
HETATM    8  C   UNK     0      60.209  72.707  64.547  0.00  0.00    -0.021 C 
HETATM    9  C   UNK     0      59.065  71.830  65.143  0.00  0.00     0.019 C 
HETATM   10  C   UNK     0      61.351  72.775  65.606  0.00  0.00     0.019 C 
HETATM   11  C   UNK     0      60.792  71.878  63.356  0.00  0.00     0.019 C 
ENDBRANCH   3   8
ENDBRANCH   1   2
BRANCH   1  12
HETATM   12  C   UNK     0      62.836  75.542  63.414  0.00  0.00     0.175 C 
BRANCH  12  13
HETATM   13  C   UNK     0      64.127  74.800  63.736  0.00  0.00     0.027 C 
BRANCH  13  14
HETATM   14  C   UNK     0      64.144  73.384  63.152  0.00  0.00     0.004 C 
BRANCH  14  15
HETATM   15  C   UNK     0      65.297  73.205  62.163  0.00  0.00     0.030 C 
BRANCH  15  16
HETATM   16  C   UNK     0      65.682  74.535  61.516  0.00  0.00     0.269 C 
BRANCH  16  17
HETATM   17  N   UNK     0      65.575  74.442  60.065  0.00  0.00     0.085 N 
HETATM   18  H   UNK     0      66.280  73.798  59.708  0.00  0.00     0.315 HD
BRANCH  17  19
HETATM   19  C   UNK     0      64.248  73.988  59.670  0.00  0.00     0.295 C 
BRANCH  19  20
HETATM   20  C   UNK     0      63.221  75.091  59.866  0.00  0.00     0.194 C 
BRANCH  20  21
HETATM   21  O   UNK     0      62.456  75.220  58.676  0.00  0.00    -0.399 OA
HETATM   22  H   UNK     0      61.802  75.923  58.832  0.00  0.00     0.209 HD
ENDBRANCH  20  21
ENDBRANCH  19  20
ENDBRANCH  17  19
ENDBRANCH  16  17
ENDBRANCH  15  16
ENDBRANCH  14  15
ENDBRANCH  13  14
ENDBRANCH  12  13
ENDBRANCH   1  12
TORSDOF 11
ENDMDL
MODEL 6
REMARK VINA RESULT:      -5.8     16.902     19.920
REMARK  11 active torsions:
REMARK  status: ('A' for Active; 'I' for Inactive)
REMARK    1  A    between atoms: O_1  and  C_11 
REMARK    2  A    between atoms: O_1  and  C_13 
REMARK    3  A    between atoms: O_2  and  C_20 
REMARK    4  A    between atoms: N_3  and  C_15 
REMARK    5  A    between atoms: N_3  and  C_19 
REMARK    6  A    between atoms: C_4  and  C_5 
REMARK    7  A    between atoms: C_9  and  C_10 
REMARK    8  A    between atoms: C_9  and  C_12 
REMARK    9  A    between atoms: C_10  and  C_13 
REMARK   10  A    between atoms: C_12  and  C_15 
REMARK   11  A    between atoms: C_19  and  C_20 
ROOT
HETATM    1  O   UNK     0      55.100  56.870  70.180  0.00  0.00    -0.351 OA
ENDROOT
BRANCH   1   2
HETATM    2  C   UNK     0      55.255  55.596  70.663  0.00  0.00     0.075 A 
HETATM    3  C   UNK     0      55.258  54.501  69.799  0.00  0.00    -0.017 A 
HETATM    4  C   UNK     0      55.416  53.211  70.307  0.00  0.00     0.011 A 
HETATM    5  C   UNK     0      55.573  53.017  71.680  0.00  0.00     0.001 A 
HETATM    6  C   UNK     0      55.569  54.112  72.544  0.00  0.00     0.003 A 
HETATM    7  C   UNK     0      55.410  55.402  72.035  0.00  0.00     0.037 A 
BRANCH   3   8
HETATM    8  C   UNK     0      55.093  54.690  68.327  0.00  0.00    -0.021 C 
HETATM    9  C   UNK     0      54.995  53.319  67.590  0.00  0.00     0.019 C 
HETATM   10  C   UNK     0      56.300  55.467  67.719  0.00  0.00     0.019 C 
HETATM   11  C   UNK     0      53.820  55.489  67.893  0.00  0.00     0.019 C 
ENDBRANCH   3   8
ENDBRANCH   1   2
BRANCH   1  12
HETATM   12  C   UNK     0      55.857  57.892  70.813  0.00  0.00     0.175 C 
BRANCH  12  13
HETATM   13  C   UNK     0      57.216  58.026  70.137  0.00  0.00     0.027 C 
BRANCH  13  14
HETATM   14  C   UNK     0      57.131  58.777  68.806  0.00  0.00     0.004 C 
BRANCH  14  15
HETATM   15  C   UNK     0      55.962  59.764  68.798  0.00  0.00     0.030 C 
BRANCH  15  16
HETATM   16  C   UNK     0      55.766  60.378  67.414  0.00  0.00     0.269 C 
BRANCH  16  17
HETATM   17  N   UNK     0      54.567  59.838  66.785  0.00  0.00     0.085 N 
HETATM   18  H   UNK     0      53.793  59.854  67.449  0.00  0.00     0.315 HD
BRANCH  17  19
HETATM   19  C   UNK     0      54.212  60.604  65.597  0.00  0.00     0.295 C 
BRANCH  19  20
HETATM   20  C   UNK     0      55.292  61.623  65.273  0.00  0.00     0.194 C 
BRANCH  20  21
HETATM   21  O   UNK     0      54.759  62.928  65.454  0.00  0.00    -0.399 OA
HETATM   22  H   UNK     0      54.068  63.049  64.781  0.00  0.00     0.209 HD
ENDBRANCH  20  21
ENDBRANCH  19  20
ENDBRANCH  17  19
ENDBRANCH  16  17
ENDBRANCH  15  16
ENDBRANCH  14  15
ENDBRANCH  13  14
ENDBRANCH  12  13
ENDBRANCH   1  12
TORSDOF 11
ENDMDL
MODEL 7
REMARK VINA RESULT:      -5.5     19.645     22.224
REMARK  11 active torsions:
REMARK  status: ('A' for Active; 'I' for Inactive)
REMARK    1  A    between atoms: O_1  and  C_11 
REMARK    2  A    between atoms: O_1  and  C_13 
REMARK    3  A    between atoms: O_2  and  C_20 
REMARK    4  A    between atoms: N_3  and  C_15 
REMARK    5  A    between atoms: N_3  and  C_19 
REMARK    6  A    between atoms: C_4  and  C_5 
REMARK    7  A    between atoms: C_9  and  C_10 
REMARK    8  A    between atoms: C_9  and  C_12 
REMARK    9  A    between atoms: C_10  and  C_13 
REMARK   10  A    between atoms: C_12  and  C_15 
REMARK   11  A    between atoms: C_19  and  C_20 
ROOT
HETATM    1  O   UNK     0      55.506  56.103  71.288  0.00  0.00    -0.351 OA
ENDROOT
BRANCH   1   2
HETATM    2  C   UNK     0      54.497  56.687  70.566  0.00  0.00     0.075 A 
HETATM    3  C   UNK     0      54.783  57.589  69.541  0.00  0.00    -0.017 A 
HETATM    4  C   UNK     0      53.743  58.173  68.816  0.00  0.00     0.011 A 
HETATM    5  C   UNK     0      52.419  57.856  69.117  0.00  0.00     0.001 A 
HETATM    6  C   UNK     0      52.133  56.954  70.143  0.00  0.00     0.003 A 
HETATM    7  C   UNK     0      53.172  56.370  70.867  0.00  0.00     0.037 A 
BRANCH   3   8
HETATM    8  C   UNK     0      56.194  57.939  69.205  0.00  0.00    -0.021 C 
HETATM    9  C   UNK     0      57.010  58.286  70.490  0.00  0.00     0.019 C 
HETATM   10  C   UNK     0      56.260  59.176  68.258  0.00  0.00     0.019 C 
HETATM   11  C   UNK     0      57.010  56.816  68.485  0.00  0.00     0.019 C 
ENDBRANCH   3   8
ENDBRANCH   1   2
BRANCH   1  12
HETATM   12  C   UNK     0      55.554  54.684  71.291  0.00  0.00     0.175 C 
BRANCH  12  13
HETATM   13  C   UNK     0      55.311  54.157  72.700  0.00  0.00     0.027 C 
BRANCH  13  14
HETATM   14  C   UNK     0      56.258  53.010  73.063  0.00  0.00     0.004 C 
BRANCH  14  15
HETATM   15  C   UNK     0      56.611  52.171  71.833  0.00  0.00     0.030 C 
BRANCH  15  16
HETATM   16  C   UNK     0      56.053  50.754  71.953  0.00  0.00     0.269 C 
BRANCH  16  17
HETATM   17  N   UNK     0      57.137  49.799  72.150  0.00  0.00     0.085 N 
HETATM   18  H   UNK     0      57.436  49.814  73.125  0.00  0.00     0.315 HD
BRANCH  17  19
HETATM   19  C   UNK     0      56.716  48.453  71.785  0.00  0.00     0.295 C 
BRANCH  19  20
HETATM   20  C   UNK     0      57.419  47.995  70.518  0.00  0.00     0.194 C 
BRANCH  20  21
HETATM   21  O   UNK     0      58.701  48.605  70.460  0.00  0.00    -0.399 OA
HETATM   22  H   UNK     0      58.559  49.567  70.451  0.00  0.00     0.209 HD
ENDBRANCH  20  21
ENDBRANCH  19  20
ENDBRANCH  17  19
ENDBRANCH  16  17
ENDBRANCH  15  16
ENDBRANCH  14  15
ENDBRANCH  13  14
ENDBRANCH  12  13
ENDBRANCH   1  12
TORSDOF 11
ENDMDL
MODEL 8
REMARK VINA RESULT:      -5.4     19.224     22.269
REMARK  11 active torsions:
REMARK  status: ('A' for Active; 'I' for Inactive)
REMARK    1  A    between atoms: O_1  and  C_11 
REMARK    2  A    between atoms: O_1  and  C_13 
REMARK    3  A    between atoms: O_2  and  C_20 
REMARK    4  A    between atoms: N_3  and  C_15 
REMARK    5  A    between atoms: N_3  and  C_19 
REMARK    6  A    between atoms: C_4  and  C_5 
REMARK    7  A    between atoms: C_9  and  C_10 
REMARK    8  A    between atoms: C_9  and  C_12 
REMARK    9  A    between atoms: C_10  and  C_13 
REMARK   10  A    between atoms: C_12  and  C_15 
REMARK   11  A    between atoms: C_19  and  C_20 
ROOT
HETATM    1  O   UNK     0      55.443  55.886  71.283  0.00  0.00    -0.351 OA
ENDROOT
BRANCH   1   2
HETATM    2  C   UNK     0      54.421  56.510  70.614  0.00  0.00     0.075 A 
HETATM    3  C   UNK     0      54.690  57.446  69.615  0.00  0.00    -0.017 A 
HETATM    4  C   UNK     0      53.638  58.071  68.944  0.00  0.00     0.011 A 
HETATM    5  C   UNK     0      52.318  57.761  69.274  0.00  0.00     0.001 A 
HETATM    6  C   UNK     0      52.050  56.827  70.274  0.00  0.00     0.003 A 
HETATM    7  C   UNK     0      53.101  56.201  70.944  0.00  0.00     0.037 A 
BRANCH   3   8
HETATM    8  C   UNK     0      56.096  57.788  69.249  0.00  0.00    -0.021 C 
HETATM    9  C   UNK     0      56.147  59.040  68.319  0.00  0.00     0.019 C 
HETATM   10  C   UNK     0      56.786  56.612  68.493  0.00  0.00     0.019 C 
HETATM   11  C   UNK     0      57.038  58.123  70.451  0.00  0.00     0.019 C 
ENDBRANCH   3   8
ENDBRANCH   1   2
BRANCH   1  12
HETATM   12  C   UNK     0      55.431  54.466  71.289  0.00  0.00     0.175 C 
BRANCH  12  13
HETATM   13  C   UNK     0      55.832  53.948  72.665  0.00  0.00     0.027 C 
BRANCH  13  14
HETATM   14  C   UNK     0      54.755  53.053  73.285  0.00  0.00     0.004 C 
BRANCH  14  15
HETATM   15  C   UNK     0      53.575  53.880  73.799  0.00  0.00     0.030 C 
BRANCH  15  16
HETATM   16  C   UNK     0      53.236  53.518  75.244  0.00  0.00     0.269 C 
BRANCH  16  17
HETATM   17  N   UNK     0      54.271  54.009  76.146  0.00  0.00     0.085 N 
HETATM   18  H   UNK     0      54.883  54.656  75.648  0.00  0.00     0.315 HD
BRANCH  17  19
HETATM   19  C   UNK     0      53.683  54.676  77.299  0.00  0.00     0.295 C 
BRANCH  19  20
HETATM   20  C   UNK     0      52.767  55.806  76.858  0.00  0.00     0.194 C 
BRANCH  20  21
HETATM   21  O   UNK     0      53.075  56.967  77.617  0.00  0.00    -0.399 OA
HETATM   22  H   UNK     0      53.927  57.303  77.290  0.00  0.00     0.209 HD
ENDBRANCH  20  21
ENDBRANCH  19  20
ENDBRANCH  17  19
ENDBRANCH  16  17
ENDBRANCH  15  16
ENDBRANCH  14  15
ENDBRANCH  13  14
ENDBRANCH  12  13
ENDBRANCH   1  12
TORSDOF 11
ENDMDL
MODEL 9
REMARK VINA RESULT:      -5.3     18.526     21.516
REMARK  11 active torsions:
REMARK  status: ('A' for Active; 'I' for Inactive)
REMARK    1  A    between atoms: O_1  and  C_11 
REMARK    2  A    between atoms: O_1  and  C_13 
REMARK    3  A    between atoms: O_2  and  C_20 
REMARK    4  A    between atoms: N_3  and  C_15 
REMARK    5  A    between atoms: N_3  and  C_19 
REMARK    6  A    between atoms: C_4  and  C_5 
REMARK    7  A    between atoms: C_9  and  C_10 
REMARK    8  A    between atoms: C_9  and  C_12 
REMARK    9  A    between atoms: C_10  and  C_13 
REMARK   10  A    between atoms: C_12  and  C_15 
REMARK   11  A    between atoms: C_19  and  C_20 
ROOT
HETATM    1  O   UNK     0      54.190  54.502  69.722  0.00  0.00    -0.351 OA
ENDROOT
BRANCH   1   2
HETATM    2  C   UNK     0      54.980  53.695  70.500  0.00  0.00     0.075 A 
HETATM    3  C   UNK     0      55.370  52.432  70.053  0.00  0.00    -0.017 A 
HETATM    4  C   UNK     0      56.173  51.624  70.858  0.00  0.00     0.011 A 
HETATM    5  C   UNK     0      56.587  52.079  72.110  0.00  0.00     0.001 A 
HETATM    6  C   UNK     0      56.197  53.341  72.558  0.00  0.00     0.003 A 
HETATM    7  C   UNK     0      55.393  54.149  71.753  0.00  0.00     0.037 A 
BRANCH   3   8
HETATM    8  C   UNK     0      54.937  51.930  68.716  0.00  0.00    -0.021 C 
HETATM    9  C   UNK     0      53.389  51.736  68.660  0.00  0.00     0.019 C 
HETATM   10  C   UNK     0      55.595  50.555  68.388  0.00  0.00     0.019 C 
HETATM   11  C   UNK     0      55.284  52.859  67.507  0.00  0.00     0.019 C 
ENDBRANCH   3   8
ENDBRANCH   1   2
BRANCH   1  12
HETATM   12  C   UNK     0      54.463  55.895  69.761  0.00  0.00     0.175 C 
BRANCH  12  13
HETATM   13  C   UNK     0      55.551  56.241  68.752  0.00  0.00     0.027 C 
BRANCH  13  14
HETATM   14  C   UNK     0      56.524  57.296  69.286  0.00  0.00     0.004 C 
BRANCH  14  15
HETATM   15  C   UNK     0      55.930  58.702  69.185  0.00  0.00     0.030 C 
BRANCH  15  16
HETATM   16  C   UNK     0      56.836  59.628  68.375  0.00  0.00     0.269 C 
BRANCH  16  17
HETATM   17  N   UNK     0      56.037  60.503  67.526  0.00  0.00     0.085 N 
HETATM   18  H   UNK     0      56.578  60.773  66.704  0.00  0.00     0.315 HD
BRANCH  17  19
HETATM   19  C   UNK     0      54.807  59.842  67.110  0.00  0.00     0.295 C 
BRANCH  19  20
HETATM   20  C   UNK     0      54.083  60.668  66.059  0.00  0.00     0.194 C 
BRANCH  20  21
HETATM   21  O   UNK     0      53.245  61.610  66.716  0.00  0.00    -0.399 OA
HETATM   22  H   UNK     0      52.679  62.012  66.035  0.00  0.00     0.209 HD
ENDBRANCH  20  21
ENDBRANCH  19  20
ENDBRANCH  17  19
ENDBRANCH  16  17
ENDBRANCH  15  16
ENDBRANCH  14  15
ENDBRANCH  13  14
ENDBRANCH  12  13
ENDBRANCH   1  12
TORSDOF 11
ENDMDL
