REMARK  5 active torsions:
REMARK  status: ('A' for Active; 'I' for Inactive)
REMARK    1  A    between atoms: O_1  and  C_13 
REMARK    2  A    between atoms: O_1  and  C_18 
REMARK    3  A    between atoms: C_6  and  C_8 
REMARK    4  A    between atoms: C_7  and  C_13 
REMARK    5  A    between atoms: C_11  and  C_15 
ROOT
HETATM    1  O   UNK     0       2.293   3.815   0.428  0.00  0.00    -0.247 OA
HETATM    2  N   UNK     0       1.552   2.099  -0.897  0.00  0.00    -0.330 N 
HETATM    3  N   UNK     0       2.718   1.660   1.085  0.00  0.00    -0.312 N 
HETATM    4  C   UNK     0       1.272   0.690  -1.138  0.00  0.00     0.156 C 
HETATM    5  C   UNK     0       2.030  -0.194  -0.185  0.00  0.00     0.066 C 
HETATM    6  C   UNK     0       2.689   0.295   0.882  0.00  0.00     0.024 C 
HETATM    7  C   UNK     0       2.187   2.604   0.223  0.00  0.00     0.321 C 
HETATM    8  C   UNK     0       3.425  -0.495   1.928  0.00  0.00     0.069 C 
HETATM    9  H   UNK     0       1.189   2.771  -1.568  0.00  0.00     0.165 HD
HETATM   10  H   UNK     0       3.204   1.999   1.912  0.00  0.00     0.170 HD
ENDROOT
BRANCH   4  11
HETATM   11  C   UNK     0      -0.210   0.507  -1.032  0.00  0.00    -0.056 C 
HETATM   12  C   UNK     0      -0.936   0.674   0.089  0.00  0.00     0.016 C 
HETATM   13  C   UNK     0      -0.879   0.089  -2.314  0.00  0.00     0.046 C 
BRANCH  12  14
HETATM   14  C   UNK     0      -2.387   0.499   0.211  0.00  0.00    -0.036 A 
HETATM   15  C   UNK     0      -3.230   1.579  -0.020  0.00  0.00     0.011 A 
HETATM   16  C   UNK     0      -4.610   1.413   0.095  0.00  0.00     0.001 A 
HETATM   17  C   UNK     0      -5.136   0.168   0.440  0.00  0.00     0.000 A 
HETATM   18  C   UNK     0      -4.282  -0.910   0.670  0.00  0.00     0.001 A 
HETATM   19  C   UNK     0      -2.902  -0.744   0.555  0.00  0.00     0.011 A 
ENDBRANCH  12  14
ENDBRANCH   4  11
BRANCH   5  20
HETATM   20  C   UNK     0       2.036  -1.631  -0.506  0.00  0.00     0.293 C 
HETATM   21  O   UNK     0       2.869  -2.153  -1.224  0.00  0.00    -0.259 OA
BRANCH  20  22
HETATM   22  O   UNK     0       0.989  -2.214   0.126  0.00  0.00    -0.318 OA
BRANCH  22  23
HETATM   23  C   UNK     0       0.859  -3.623  -0.089  0.00  0.00     0.174 C 
HETATM   24  C   UNK     0      -0.347  -4.129   0.674  0.00  0.00     0.034 C 
ENDBRANCH  22  23
ENDBRANCH  20  22
ENDBRANCH   5  20
TORSDOF 5
