REMARK  6 active torsions:
REMARK  status: ('A' for Active; 'I' for Inactive)
REMARK    1  A    between atoms: O_2  and  C_19 
REMARK    2  A    between atoms: O_2  and  C_24 
REMARK    3  A    between atoms: N_4  and  C_9 
REMARK    4  A    between atoms: N_5  and  C_12 
REMARK    5  A    between atoms: C_9  and  C_13 
REMARK    6  A    between atoms: C_13  and  C_19 
ROOT
HETATM    1  O   UNK     0      -3.626   0.364  -0.517  0.00  0.00    -0.266 OA
HETATM    2  N   UNK     0      -0.209  -0.013   0.226  0.00  0.00    -0.168 NA
HETATM    3  N   UNK     0      -1.331   0.815  -0.055  0.00  0.00    -0.233 N 
HETATM    4  N   UNK     0      -0.045  -2.484   0.457  0.00  0.00    -0.239 NA
HETATM    5  C   UNK     0      -0.728  -1.343   0.247  0.00  0.00     0.140 A 
HETATM    6  C   UNK     0      -2.082  -1.338  -0.050  0.00  0.00     0.081 A 
HETATM    7  C   UNK     0      -2.477   0.049  -0.267  0.00  0.00     0.277 A 
HETATM    8  C   UNK     0      -2.819  -2.501  -0.122  0.00  0.00    -0.041 A 
HETATM    9  C   UNK     0      -2.138  -3.689   0.109  0.00  0.00     0.034 A 
HETATM   10  C   UNK     0      -0.772  -3.629   0.389  0.00  0.00     0.033 A 
HETATM   11  C   UNK     0      -4.272  -2.514  -0.438  0.00  0.00     0.049 C 
HETATM   12  C   UNK     0      -0.028  -4.901   0.632  0.00  0.00     0.070 C 
ENDROOT
BRANCH   2  13
HETATM   13  C   UNK     0       0.984   0.107  -0.603  0.00  0.00     0.132 C 
BRANCH  13  14
HETATM   14  C   UNK     0       2.241  -0.149   0.222  0.00  0.00     0.127 C 
BRANCH  14  15
HETATM   15  C   UNK     0       3.516   0.001  -0.581  0.00  0.00     0.260 C 
HETATM   16  O   UNK     0       3.575   0.297  -1.766  0.00  0.00    -0.265 OA
BRANCH  15  17
HETATM   17  O   UNK     0       4.583  -0.237   0.239  0.00  0.00    -0.322 OA
BRANCH  17  18
HETATM   18  C   UNK     0       5.870  -0.119  -0.375  0.00  0.00     0.174 C 
HETATM   19  C   UNK     0       6.938  -0.409   0.657  0.00  0.00     0.034 C 
ENDBRANCH  17  18
ENDBRANCH  15  17
ENDBRANCH  14  15
ENDBRANCH  13  14
ENDBRANCH   2  13
BRANCH   3  20
HETATM   20  C   UNK     0      -1.264   2.224   0.107  0.00  0.00     0.055 A 
HETATM   21  C   UNK     0      -2.202   3.052  -0.519  0.00  0.00     0.031 A 
HETATM   22  C   UNK     0      -2.136   4.437  -0.361  0.00  0.00     0.002 A 
HETATM   23  C   UNK     0      -1.130   5.001   0.424  0.00  0.00     0.000 A 
HETATM   24  C   UNK     0      -0.191   4.182   1.050  0.00  0.00     0.002 A 
HETATM   25  C   UNK     0      -0.258   2.797   0.892  0.00  0.00     0.031 A 
ENDBRANCH   3  20
TORSDOF 6
