REMARK  4 active torsions:
REMARK  status: ('A' for Active; 'I' for Inactive)
REMARK    1  A    between atoms: P_3  and  N_5 
REMARK    2  A    between atoms: P_3  and  C_8 
REMARK    3  A    between atoms: P_3  and  C_9 
REMARK    4  A    between atoms: N_5  and  C_14 
ROOT
HETATM    1  P   UNK     0      -0.934  -0.189   0.759  0.00  0.00     0.253 P 
HETATM    2  O   UNK     0      -1.345   0.026   2.213  0.00  0.00    -0.286 OA
ENDROOT
BRANCH   1   3
HETATM    3  N   UNK     0      -1.422   0.896  -0.390  0.00  0.00    -0.307 N 
HETATM    4  H   UNK     0      -0.944   0.934  -1.290  0.00  0.00     0.170 HD
BRANCH   3   5
HETATM    5  C   UNK     0      -2.580   1.707  -0.343  0.00  0.00     0.172 A 
HETATM    6  S   UNK     0      -2.973   2.595  -1.726  0.00  0.00    -0.063 SA
HETATM    7  C   UNK     0      -4.333   3.191  -0.869  0.00  0.00     0.072 A 
HETATM    8  C   UNK     0      -4.354   2.650   0.400  0.00  0.00     0.126 A 
HETATM    9  N   UNK     0      -3.324   1.780   0.702  0.00  0.00    -0.236 NA
ENDBRANCH   3   5
ENDBRANCH   1   3
BRANCH   1  10
HETATM   10  C   UNK     0      -1.012  -1.903   0.279  0.00  0.00     0.029 A 
HETATM   11  C   UNK     0      -0.227  -2.834   0.943  0.00  0.00     0.017 A 
HETATM   12  C   UNK     0      -0.289  -4.176   0.567  0.00  0.00     0.001 A 
HETATM   13  C   UNK     0      -1.135  -4.571  -0.469  0.00  0.00     0.000 A 
HETATM   14  C   UNK     0      -1.919  -3.625  -1.129  0.00  0.00     0.001 A 
HETATM   15  C   UNK     0      -1.858  -2.283  -0.753  0.00  0.00     0.017 A 
ENDBRANCH   1  10
BRANCH   1  16
HETATM   16  C   UNK     0       0.738   0.269   0.507  0.00  0.00     0.162 A 
HETATM   17  S   UNK     0       1.503   1.471   1.451  0.00  0.00    -0.063 SA
HETATM   18  C   UNK     0       2.957   1.236   0.554  0.00  0.00     0.036 A 
HETATM   19  C   UNK     0       2.744   0.246  -0.409  0.00  0.00     0.075 A 
HETATM   20  C   UNK     0       4.196   1.882   0.693  0.00  0.00     0.021 A 
HETATM   21  N   UNK     0       1.469  -0.299  -0.424  0.00  0.00    -0.235 NA
HETATM   22  C   UNK     0       3.812  -0.109  -1.263  0.00  0.00     0.033 A 
HETATM   23  C   UNK     0       5.048   0.529  -1.130  0.00  0.00     0.002 A 
HETATM   24  C   UNK     0       5.236   1.512  -0.164  0.00  0.00     0.002 A 
ENDBRANCH   1  16
TORSDOF 4
