REMARK  5 active torsions:
REMARK  status: ('A' for Active; 'I' for Inactive)
REMARK    1  A    between atoms: S_1  and  N_5 
REMARK    2  A    between atoms: N_5  and  C_8 
REMARK    3  A    between atoms: N_5  and  C_14 
REMARK       I    between atoms: N_6  and  C_15 
REMARK    4  A    between atoms: N_7  and  C_21 
REMARK    5  A    between atoms: C_14  and  C_15 
ROOT
HETATM    1  O   UNK     0       1.293  -0.413  -2.030  0.00  0.00    -0.272 OA
HETATM    2  N   UNK     0      -0.521   0.128  -0.683  0.00  0.00    -0.348 N 
HETATM    3  N   UNK     0      -3.370   0.229  -0.182  0.00  0.00    -0.378 N 
HETATM    4  C   UNK     0       0.839  -0.041  -0.945  0.00  0.00     0.238 C 
HETATM    5  C   UNK     0      -1.497  -0.143  -1.735  0.00  0.00     0.145 C 
HETATM    6  C   UNK     0      -1.060   0.561   0.609  0.00  0.00     0.145 C 
HETATM    7  C   UNK     0      -2.806  -0.692  -1.172  0.00  0.00     0.143 C 
HETATM    8  C   UNK     0      -2.462   1.159   0.495  0.00  0.00     0.143 C 
ENDROOT
BRANCH   4   9
HETATM    9  C   UNK     0       1.781   0.266   0.193  0.00  0.00     0.238 C 
BRANCH   9  10
HETATM   10  N   UNK     0       2.928  -0.614  -0.026  0.00  0.00    -0.298 N 
BRANCH  10  11
HETATM   11  S   UNK     0       2.883  -2.210   0.636  0.00  0.00     0.225 S 
HETATM   12  O   UNK     0       3.382  -2.198   1.998  0.00  0.00    -0.206 OA
HETATM   13  O   UNK     0       1.595  -2.808   0.336  0.00  0.00    -0.206 OA
HETATM   14  C   UNK     0       4.100  -3.031  -0.371  0.00  0.00     0.186 C 
ENDBRANCH  10  11
BRANCH  10  15
HETATM   15  C   UNK     0       4.227   0.101   0.039  0.00  0.00     0.096 C 
HETATM   16  C   UNK     0       4.312   0.867   1.360  0.00  0.00     0.026 C 
HETATM   17  C   UNK     0       5.578   1.716   1.433  0.00  0.00     0.002 C 
HETATM   18  C   UNK     0       5.699   2.651   0.233  0.00  0.00     0.000 C 
HETATM   19  C   UNK     0       5.608   1.890  -1.087  0.00  0.00     0.002 C 
HETATM   20  C   UNK     0       4.341   1.042  -1.161  0.00  0.00     0.026 C 
ENDBRANCH  10  15
ENDBRANCH   9  10
ENDBRANCH   4   9
BRANCH   3  21
HETATM   21  C   UNK     0      -4.739   0.243   0.078  0.00  0.00     0.030 A 
HETATM   22  C   UNK     0      -5.527  -0.924  -0.060  0.00  0.00     0.029 A 
HETATM   23  C   UNK     0      -6.897  -0.910   0.199  0.00  0.00     0.002 A 
HETATM   24  C   UNK     0      -7.519   0.271   0.604  0.00  0.00     0.000 A 
HETATM   25  C   UNK     0      -6.769   1.439   0.749  0.00  0.00     0.002 A 
HETATM   26  C   UNK     0      -5.399   1.425   0.490  0.00  0.00     0.029 A 
ENDBRANCH   3  21
TORSDOF 5
