REMARK  9 active torsions:
REMARK  status: ('A' for Active; 'I' for Inactive)
REMARK    1  A    between atoms: N_4  and  C_8 
REMARK       I    between atoms: N_4  and  C_13 
REMARK    2  A    between atoms: N_5  and  C_14 
REMARK    3  A    between atoms: N_5  and  C_15 
REMARK       I    between atoms: N_5  and  C_16 
REMARK       I    between atoms: N_6  and  C_27 
REMARK    4  A    between atoms: N_6  and  C_28 
REMARK    5  A    between atoms: C_13  and  C_14 
REMARK    6  A    between atoms: C_16  and  C_17 
REMARK    7  A    between atoms: C_17  and  C_19 
REMARK    8  A    between atoms: C_19  and  C_22 
REMARK    9  A    between atoms: C_22  and  C_27 
ROOT
HETATM    1  O   UNK     0      -0.833  -3.450   0.379  0.00  0.00    -0.273 OA
HETATM    2  N   UNK     0      -1.246  -1.408  -0.691  0.00  0.00    -0.309 N 
HETATM    3  C   UNK     0      -0.423  -2.419  -0.159  0.00  0.00     0.224 C 
ENDROOT
BRANCH   2   4
HETATM    4  C   UNK     0      -2.710  -1.517  -0.638  0.00  0.00     0.235 C 
BRANCH   4   5
HETATM    5  C   UNK     0      -3.218  -0.894   0.645  0.00  0.00     0.236 C 
HETATM    6  O   UNK     0      -2.589  -0.918   1.699  0.00  0.00    -0.272 OA
HETATM    7  N   UNK     0      -4.484  -0.351   0.479  0.00  0.00    -0.355 N 
HETATM    8  H   UNK     0      -4.902  -0.352  -0.448  0.00  0.00     0.162 HD
BRANCH   7   9
HETATM    9  C   UNK     0      -5.228   0.264   1.551  0.00  0.00     0.084 C 
HETATM   10  C   UNK     0      -4.999   1.769   1.611  0.00  0.00     0.025 C 
HETATM   11  C   UNK     0      -5.966   2.358   0.586  0.00  0.00     0.002 C 
HETATM   12  C   UNK     0      -7.055   1.307   0.370  0.00  0.00     0.002 C 
HETATM   13  C   UNK     0      -6.731   0.160   1.324  0.00  0.00     0.025 C 
ENDBRANCH   7   9
ENDBRANCH   4   5
ENDBRANCH   2   4
BRANCH   2  14
HETATM   14  C   UNK     0      -0.639  -0.240  -1.300  0.00  0.00     0.044 A 
HETATM   15  C   UNK     0      -0.337  -0.219  -2.662  0.00  0.00    -0.035 A 
HETATM   16  C   UNK     0       0.246   0.913  -3.230  0.00  0.00     0.009 A 
HETATM   17  C   UNK     0      -0.628  -1.396  -3.536  0.00  0.00     0.050 C 
HETATM   18  C   UNK     0       0.527   2.026  -2.436  0.00  0.00     0.007 A 
HETATM   19  C   UNK     0       0.225   2.005  -1.074  0.00  0.00    -0.060 A 
HETATM   20  C   UNK     0      -0.358   0.872  -0.506  0.00  0.00     0.037 A 
HETATM   21  C   UNK     0       0.526   3.194  -0.226  0.00  0.00     0.048 C 
ENDBRANCH   2  14
BRANCH   3  22
HETATM   22  C   UNK     0       1.079  -2.172  -0.273  0.00  0.00     0.104 C 
BRANCH  22  23
HETATM   23  C   UNK     0       1.924  -3.304   0.321  0.00  0.00     0.019 C 
BRANCH  23  24
HETATM   24  C   UNK     0       3.437  -3.107   0.186  0.00  0.00     0.103 C 
BRANCH  24  25
HETATM   25  C   UNK     0       3.918  -1.858   0.906  0.00  0.00     0.223 C 
HETATM   26  O   UNK     0       4.239  -1.907   2.089  0.00  0.00    -0.273 OA
HETATM   27  N   UNK     0       3.895  -0.743   0.076  0.00  0.00    -0.312 N 
HETATM   28  H   UNK     0       3.599  -0.865  -0.889  0.00  0.00     0.170 HD
BRANCH  27  29
HETATM   29  C   UNK     0       4.239   0.588   0.408  0.00  0.00     0.129 A 
HETATM   30  N   UNK     0       4.149   1.536  -0.551  0.00  0.00    -0.243 NA
HETATM   31  C   UNK     0       4.489   2.793  -0.186  0.00  0.00     0.119 A 
HETATM   32  C   UNK     0       4.911   3.144   1.086  0.00  0.00     0.019 A 
HETATM   33  C   UNK     0       4.991   2.141   2.045  0.00  0.00     0.005 A 
HETATM   34  C   UNK     0       4.650   0.836   1.708  0.00  0.00     0.050 A 
ENDBRANCH  27  29
ENDBRANCH  24  25
ENDBRANCH  23  24
ENDBRANCH  22  23
ENDBRANCH   3  22
TORSDOF 9
