750416
  -OEChem-09082001193D

 37 40  0     0  0  0  0  0  0999 V2000
   -2.6998    1.2557    0.2700 S   0  0  0  0  0  0  0  0  0  0  0  0
   -0.1445    1.9222    1.3881 O   0  0  0  0  0  0  0  0  0  0  0  0
    1.1337    0.2906    0.4233 N   0  0  0  0  0  0  0  0  0  0  0  0
   -5.2887    0.6659   -0.3317 N   0  0  0  0  0  0  0  0  0  0  0  0
   -4.0051   -1.0966   -0.1467 N   0  0  0  0  0  0  0  0  0  0  0  0
   -5.2836   -1.5188   -0.4521 N   0  0  0  0  0  0  0  0  0  0  0  0
    2.2543    1.0741    0.0888 C   0  0  0  0  0  0  0  0  0  0  0  0
    1.4952   -1.0620    0.2954 C   0  0  0  0  0  0  0  0  0  0  0  0
    3.2899    0.2192   -0.2910 C   0  0  0  0  0  0  0  0  0  0  0  0
    2.8165   -1.1130   -0.1676 C   0  0  0  0  0  0  0  0  0  0  0  0
   -0.1133    0.8404    0.8140 C   0  0  0  0  0  0  0  0  0  0  0  0
    2.4433    2.4731    0.0527 C   0  0  0  0  0  0  0  0  0  0  0  0
    0.8109   -2.2671    0.5647 C   0  0  0  0  0  0  0  0  0  0  0  0
    4.5320    0.7617   -0.6938 C   0  0  0  0  0  0  0  0  0  0  0  0
    3.4327   -2.3644   -0.4036 C   0  0  0  0  0  0  0  0  0  0  0  0
   -1.3563    0.0751    0.4991 C   0  0  0  0  0  0  0  0  0  0  0  0
    3.6802    2.9885   -0.3483 C   0  0  0  0  0  0  0  0  0  0  0  0
    1.4409   -3.4942    0.3273 C   0  0  0  0  0  0  0  0  0  0  0  0
    4.7156    2.1439   -0.7166 C   0  0  0  0  0  0  0  0  0  0  0  0
    2.7361   -3.5455   -0.1583 C   0  0  0  0  0  0  0  0  0  0  0  0
   -4.0815    0.1739   -0.0929 C   0  0  0  0  0  0  0  0  0  0  0  0
   -5.7704    2.0257   -0.3622 C   0  0  0  0  0  0  0  0  0  0  0  0
   -6.0380   -0.4484   -0.5587 C   0  0  0  0  0  0  0  0  0  0  0  0
    1.6485    3.1617    0.3198 H   0  0  0  0  0  0  0  0  0  0  0  0
   -0.1983   -2.2708    0.9603 H   0  0  0  0  0  0  0  0  0  0  0  0
    5.3492    0.1082   -0.9878 H   0  0  0  0  0  0  0  0  0  0  0  0
    4.4557   -2.4133   -0.7682 H   0  0  0  0  0  0  0  0  0  0  0  0
   -1.5919   -0.5882    1.3349 H   0  0  0  0  0  0  0  0  0  0  0  0
   -1.2361   -0.4925   -0.4273 H   0  0  0  0  0  0  0  0  0  0  0  0
    3.8271    4.0650   -0.3749 H   0  0  0  0  0  0  0  0  0  0  0  0
    0.9045   -4.4173    0.5313 H   0  0  0  0  0  0  0  0  0  0  0  0
    5.6709    2.5572   -1.0271 H   0  0  0  0  0  0  0  0  0  0  0  0
    3.2142   -4.5040   -0.3376 H   0  0  0  0  0  0  0  0  0  0  0  0
   -5.6099    2.4752    0.6210 H   0  0  0  0  0  0  0  0  0  0  0  0
   -5.2244    2.5724   -1.1350 H   0  0  0  0  0  0  0  0  0  0  0  0
   -6.8383    2.0283   -0.5965 H   0  0  0  0  0  0  0  0  0  0  0  0
   -7.0936   -0.4281   -0.7903 H   0  0  0  0  0  0  0  0  0  0  0  0
  1 16  1  0  0  0  0
  1 21  1  0  0  0  0
  2 11  2  0  0  0  0
  3  7  1  0  0  0  0
  3  8  1  0  0  0  0
  3 11  1  0  0  0  0
  4 21  1  0  0  0  0
  4 22  1  0  0  0  0
  4 23  1  0  0  0  0
  5  6  1  0  0  0  0
  5 21  2  0  0  0  0
  6 23  2  0  0  0  0
  7  9  1  0  0  0  0
  7 12  2  0  0  0  0
  8 10  1  0  0  0  0
  8 13  2  0  0  0  0
  9 10  1  0  0  0  0
  9 14  2  0  0  0  0
 10 15  2  0  0  0  0
 11 16  1  0  0  0  0
 12 17  1  0  0  0  0
 12 24  1  0  0  0  0
 13 18  1  0  0  0  0
 13 25  1  0  0  0  0
 14 19  1  0  0  0  0
 14 26  1  0  0  0  0
 15 20  1  0  0  0  0
 15 27  1  0  0  0  0
 16 28  1  0  0  0  0
 16 29  1  0  0  0  0
 17 19  2  0  0  0  0
 17 30  1  0  0  0  0
 18 20  2  0  0  0  0
 18 31  1  0  0  0  0
 19 32  1  0  0  0  0
 20 33  1  0  0  0  0
 22 34  1  0  0  0  0
 22 35  1  0  0  0  0
 22 36  1  0  0  0  0
 23 37  1  0  0  0  0
M  END
> <PUBCHEM_COMPOUND_CID>
750416

> <PUBCHEM_CONFORMER_RMSD>
0.8

> <PUBCHEM_CONFORMER_DIVERSEORDER>
1
26
61
7
50
41
29
16
66
21
34
17
53
24
52
46
2
63
40
15
35
19
8
39
62
27
42
6
45
10
25
5
4
55
57
38
58
20
48
23
12
3
44
33
11
28
13
32
14
64
51
30
49
47
9
60
31
43
36
56
18
37
54
22
65
59

> <PUBCHEM_MMFF94_PARTIAL_CHARGES>
30
1 -0.29
11 0.52
12 -0.15
13 -0.15
14 -0.15
15 -0.15
16 0.29
17 -0.15
18 -0.15
19 -0.15
2 -0.57
20 -0.15
21 0.24
22 0.26
23 0.04
24 0.15
25 0.15
26 0.15
27 0.15
3 0.29
30 0.15
31 0.15
32 0.15
33 0.15
37 0.15
4 0.05
5 -0.34
6 -0.34
7 -0.15
8 -0.15

> <PUBCHEM_EFFECTIVE_ROTOR_COUNT>
4

> <PUBCHEM_PHARMACOPHORE_FEATURES>
7
1 2 acceptor
3 4 5 21 cation
3 4 6 23 cation
5 3 7 8 9 10 rings
5 4 5 6 21 23 rings
6 7 9 12 14 17 19 rings
6 8 10 13 15 18 20 rings

> <PUBCHEM_HEAVY_ATOM_COUNT>
23

> <PUBCHEM_ATOM_DEF_STEREO_COUNT>
0

> <PUBCHEM_ATOM_UDEF_STEREO_COUNT>
0

> <PUBCHEM_BOND_DEF_STEREO_COUNT>
0

> <PUBCHEM_BOND_UDEF_STEREO_COUNT>
0

> <PUBCHEM_ISOTOPIC_ATOM_COUNT>
0

> <PUBCHEM_COMPONENT_COUNT>
1

> <PUBCHEM_CACTVS_TAUTO_COUNT>
1

> <PUBCHEM_CONFORMER_ID>
000B735000000001

> <PUBCHEM_MMFF94_ENERGY>
61.5817

> <PUBCHEM_FEATURE_SELFOVERLAP>
38.32

> <PUBCHEM_SHAPE_FINGERPRINT>
10411042 1 17905044751498410010
10595046 47 18412825794362458941
10693767 8 18129954360654628054
10759866 29 18342175566122219295
11719270 70 18411410726997137474
12107183 9 17765722321775291233
12293681 160 17916032437429539896
12730499 353 18335710476183939011
12788726 201 17417537913123188825
13009979 54 17557711265781857642
13167823 11 18341891866758520599
13533116 47 18343016680223130137
1361 2 18191305085932530493
13836976 161 18334579083478213412
13911987 19 18120392079214809852
14528608 73 18410012177976186205
14617045 38 18340209700004746507
14790565 3 18121221140898834764
15183329 4 17846780673112959337
15250474 111 18272087141896608657
15537594 2 18059856207884849895
15842332 3 17843705277873637201
16989378 47 17416142589675360054
16993438 75 17972323086165066947
17138139 8 17772737501949333087
17844677 252 18338241458153012021
18608769 82 18191309489033677339
18681886 176 18341325588105880882
20028762 73 18272933796052638678
20554085 129 18059283384155153904
20645477 70 18335419045531071403
21054139 6 18270676583909708086
21315759 148 17822590334848413833
21344244 181 17631473291837536022
21521239 73 18131362908053027750
221490 88 18409174281322575627
22182313 1 17896626013822118731
22393880 68 18272369814910790557
235170 7 17895181204462153111
23522609 53 17916325926004920249
23559900 14 18268983211686251899
239999 70 18271811194205659406
24771293 8 18199470970709890434
25147074 1 17916034468885624449
266924 1 18130518417865436649
3004659 81 18338514119318936499
3060560 45 18408609188623429324
335352 9 18409454722245857204
4073 2 18187652431527929635
4280585 95 17694793921657788390
46194498 28 17894349999473357613
484989 97 18194697079630981138
543358 83 18339927000481983985
59755656 215 18408609162711012476
6025842 7 18410291410694884846
6327066 14 18045505472292897188
67856867 119 18409441462547606186
7164475 11 18269275655825326832
8272917 22 18410577258058994710
9709674 26 18335424543495710627

> <PUBCHEM_SHAPE_MULTIPOLES>
451.39
12.57
3.88
0.84
21.79
2.03
0.08
-3.51
-4.09
-4.81
-0.06
-0.04
-0.15
-0.52

> <PUBCHEM_SHAPE_SELFOVERLAP>
990.442

> <PUBCHEM_SHAPE_VOLUME>
247.3

> <PUBCHEM_COORDINATE_TYPE>
2
5
10

$$$$
