3132099
  -OEChem-09082001283D

 42 44  0     1  0  0  0  0  0999 V2000
    3.6538    0.2149   -0.1466 S   0  0  0  0  0  0  0  0  0  0  0  0
    1.6364   -1.7163    1.2473 O   0  0  0  0  0  0  0  0  0  0  0  0
    0.2226   -1.0081   -0.4913 N   0  0  0  0  0  0  0  0  0  0  0  0
    2.1683    2.1069    1.1274 N   0  0  0  0  0  0  0  0  0  0  0  0
    1.8697    2.0388   -1.0723 N   0  0  0  0  0  0  0  0  0  0  0  0
    2.6214   -1.1122   -0.8670 C   0  0  1  0  0  0  0  0  0  0  0  0
    3.4712   -2.3746   -1.0535 C   0  0  0  0  0  0  0  0  0  0  0  0
    1.4542   -1.3280    0.0964 C   0  0  0  0  0  0  0  0  0  0  0  0
   -1.0523   -1.0806    0.0829 C   0  0  0  0  0  0  0  0  0  0  0  0
   -2.0880   -0.2141   -0.3027 C   0  0  0  0  0  0  0  0  0  0  0  0
   -3.3563   -0.3339    0.3136 C   0  0  0  0  0  0  0  0  0  0  0  0
    2.6551   -3.5316   -1.6193 C   0  0  0  0  0  0  0  0  0  0  0  0
   -1.2636   -2.0510    1.0626 C   0  0  0  0  0  0  0  0  0  0  0  0
    2.4726    1.5520   -0.0507 C   0  0  0  0  0  0  0  0  0  0  0  0
   -1.8929    0.7683   -1.2873 C   0  0  0  0  0  0  0  0  0  0  0  0
   -3.5513   -1.3166    1.2977 C   0  0  0  0  0  0  0  0  0  0  0  0
   -2.5108   -2.1687    1.6688 C   0  0  0  0  0  0  0  0  0  0  0  0
   -4.3919    0.5327   -0.0722 C   0  0  0  0  0  0  0  0  0  0  0  0
   -2.9331    1.6209   -1.6582 C   0  0  0  0  0  0  0  0  0  0  0  0
   -4.1802    1.5034   -1.0516 C   0  0  0  0  0  0  0  0  0  0  0  0
    1.2514    3.0796    0.8439 C   0  0  0  0  0  0  0  0  0  0  0  0
    2.6599    1.7996    2.4517 C   0  0  0  0  0  0  0  0  0  0  0  0
    1.0837    3.0186   -0.5196 C   0  0  0  0  0  0  0  0  0  0  0  0
    2.2688   -0.7736   -1.8473 H   0  0  0  0  0  0  0  0  0  0  0  0
    4.3047   -2.1679   -1.7363 H   0  0  0  0  0  0  0  0  0  0  0  0
    3.9044   -2.6986   -0.0986 H   0  0  0  0  0  0  0  0  0  0  0  0
    0.2798   -0.5294   -1.3840 H   0  0  0  0  0  0  0  0  0  0  0  0
    2.1884   -3.2538   -2.5698 H   0  0  0  0  0  0  0  0  0  0  0  0
    1.8686   -3.8468   -0.9267 H   0  0  0  0  0  0  0  0  0  0  0  0
    3.3039   -4.3946   -1.8003 H   0  0  0  0  0  0  0  0  0  0  0  0
   -0.4972   -2.7617    1.3550 H   0  0  0  0  0  0  0  0  0  0  0  0
   -0.9439    0.9143   -1.7933 H   0  0  0  0  0  0  0  0  0  0  0  0
   -4.5185   -1.4282    1.7836 H   0  0  0  0  0  0  0  0  0  0  0  0
   -2.6782   -2.9303    2.4249 H   0  0  0  0  0  0  0  0  0  0  0  0
   -5.3749    0.4589    0.3884 H   0  0  0  0  0  0  0  0  0  0  0  0
   -2.7691    2.3780   -2.4196 H   0  0  0  0  0  0  0  0  0  0  0  0
   -4.9894    2.1678   -1.3405 H   0  0  0  0  0  0  0  0  0  0  0  0
    0.8101    3.7095    1.6039 H   0  0  0  0  0  0  0  0  0  0  0  0
    3.7434    1.9414    2.4638 H   0  0  0  0  0  0  0  0  0  0  0  0
    2.1954    2.4722    3.1778 H   0  0  0  0  0  0  0  0  0  0  0  0
    2.3967    0.7663    2.6906 H   0  0  0  0  0  0  0  0  0  0  0  0
    0.4354    3.6294   -1.1310 H   0  0  0  0  0  0  0  0  0  0  0  0
  1  6  1  0  0  0  0
  1 14  1  0  0  0  0
  2  8  2  0  0  0  0
  3  8  1  0  0  0  0
  3  9  1  0  0  0  0
  3 27  1  0  0  0  0
  4 14  1  0  0  0  0
  4 21  1  0  0  0  0
  4 22  1  0  0  0  0
  5 14  2  0  0  0  0
  5 23  1  0  0  0  0
  6  7  1  0  0  0  0
  6  8  1  0  0  0  0
  6 24  1  0  0  0  0
  7 12  1  0  0  0  0
  7 25  1  0  0  0  0
  7 26  1  0  0  0  0
  9 10  1  0  0  0  0
  9 13  2  0  0  0  0
 10 11  1  0  0  0  0
 10 15  2  0  0  0  0
 11 16  1  0  0  0  0
 11 18  2  0  0  0  0
 12 28  1  0  0  0  0
 12 29  1  0  0  0  0
 12 30  1  0  0  0  0
 13 17  1  0  0  0  0
 13 31  1  0  0  0  0
 15 19  1  0  0  0  0
 15 32  1  0  0  0  0
 16 17  2  0  0  0  0
 16 33  1  0  0  0  0
 17 34  1  0  0  0  0
 18 20  1  0  0  0  0
 18 35  1  0  0  0  0
 19 20  2  0  0  0  0
 19 36  1  0  0  0  0
 20 37  1  0  0  0  0
 21 23  2  0  0  0  0
 21 38  1  0  0  0  0
 22 39  1  0  0  0  0
 22 40  1  0  0  0  0
 22 41  1  0  0  0  0
 23 42  1  0  0  0  0
M  END
> <PUBCHEM_COMPOUND_CID>
3132099

> <PUBCHEM_CONFORMER_RMSD>
0.8

> <PUBCHEM_CONFORMER_DIVERSEORDER>
1
64
76
102
9
84
27
92
97
5
66
54
23
83
68
60
86
28
57
108
48
89
52
58
59
109
45
95
37
106
94
73
88
6
40
100
107
111
46
26
4
103
110
3
62
63
22
67
51
71
56
39
21
55
13
16
65
112
105
85
61
70
11
75
19
36
33
114
104
79
43
8
35
96
47
77
20
87
7
93
41
50
74
78
14
99
2
113
24
98
25
69
17
81
31
90
10
101
38
12
91
44
53
82
80
32
18
49
30
72
34
29
15
42

> <PUBCHEM_MMFF94_PARTIAL_CHARGES>
29
1 -0.29
13 -0.15
14 0.24
15 -0.15
16 -0.15
17 -0.15
18 -0.15
19 -0.15
2 -0.57
20 -0.15
21 -0.3
22 0.26
23 0.08
27 0.37
3 -0.55
31 0.15
32 0.15
33 0.15
34 0.15
35 0.15
36 0.15
37 0.15
38 0.15
4 0.05
42 0.15
5 -0.57
6 0.29
8 0.57
9 0.12

> <PUBCHEM_EFFECTIVE_ROTOR_COUNT>
6

> <PUBCHEM_PHARMACOPHORE_FEATURES>
7
1 12 hydrophobe
1 2 acceptor
1 3 donor
3 4 5 14 cation
5 4 5 14 21 23 rings
6 10 11 15 18 19 20 rings
6 9 10 11 13 16 17 rings

> <PUBCHEM_HEAVY_ATOM_COUNT>
23

> <PUBCHEM_ATOM_DEF_STEREO_COUNT>
0

> <PUBCHEM_ATOM_UDEF_STEREO_COUNT>
1

> <PUBCHEM_BOND_DEF_STEREO_COUNT>
0

> <PUBCHEM_BOND_UDEF_STEREO_COUNT>
0

> <PUBCHEM_ISOTOPIC_ATOM_COUNT>
0

> <PUBCHEM_COMPONENT_COUNT>
1

> <PUBCHEM_CACTVS_TAUTO_COUNT>
2

> <PUBCHEM_CONFORMER_ID>
002FCAC300000001

> <PUBCHEM_MMFF94_ENERGY>
61.7935

> <PUBCHEM_FEATURE_SELFOVERLAP>
35.547

> <PUBCHEM_SHAPE_FINGERPRINT>
10165383 225 17549853390974666336
10366900 7 18188494695493457991
1100329 8 16606311365763898638
11595378 159 16443058422462108497
11640471 11 16558181743317901420
12623949 98 17982204341503465639
12633257 1 17895457224514367193
12788726 201 17834960767936544278
128993 33 17977385263014937465
13134695 92 17988923319462478380
13402501 40 18335136475232237796
13726171 33 18041574631981685444
14223421 5 18190469439962471835
14251740 79 17257381739076866798
14251757 17 18189063010008484838
14866123 147 16391277660617926746
15806764 133 18264227866872323011
17093844 170 18263350430818740436
17349148 13 17532919718407057183
17357779 13 18127691522410331910
1813 80 16914840049942232726
18186145 218 18336262336990640231
18981168 100 18128814325239565817
20600515 1 17970894571625431490
20775438 99 18052785248644079151
23175994 123 18198635327964531279
23557571 272 18042129915644608835
23559900 14 18260269650782035951
238 59 18124007273345898989
3524813 1 18261394476767628453
49207404 50 18119815956606468313
495365 180 18130213947749555441
508706 21 18041270015910015965
6049 1 18334870428020855139
6438718 38 17199116508749039553
81228 2 17764596413209727322
84936 31 18131351955127065958
9709674 26 18334860549749146231

> <PUBCHEM_SHAPE_MULTIPOLES>
456.37
7.56
3.88
1.78
4.1
0.21
-0.52
-0.41
0.87
-3.2
0.14
-0.18
0.04
3.22

> <PUBCHEM_SHAPE_SELFOVERLAP>
970.339

> <PUBCHEM_SHAPE_VOLUME>
257.7

> <PUBCHEM_COORDINATE_TYPE>
2
5
10

$$$$
