1639652
  -OEChem-09082001303D

 40 42  0     0  0  0  0  0  0999 V2000
   -1.6909    0.9819    1.3837 S   0  0  0  0  0  0  0  0  0  0  0  0
    3.4720   -0.1136   -0.7759 S   0  0  0  0  0  0  0  0  0  0  0  0
   -6.7905   -3.3771   -0.7989 F   0  0  0  0  0  0  0  0  0  0  0  0
    1.5620    2.5471   -1.5615 O   0  0  0  0  0  0  0  0  0  0  0  0
    5.8039   -1.4624   -0.3413 N   0  0  0  0  0  0  0  0  0  0  0  0
    0.6607    1.4592    0.3288 N   0  0  0  0  0  0  0  0  0  0  0  0
   -1.2933    2.2928   -0.8086 N   0  0  0  0  0  0  0  0  0  0  0  0
    5.6737    0.4480    0.7175 N   0  0  0  0  0  0  0  0  0  0  0  0
    6.8892   -0.1341    1.0172 N   0  0  0  0  0  0  0  0  0  0  0  0
    5.4961   -2.5740   -1.1613 N   0  0  0  0  0  0  0  0  0  0  0  0
   -4.4217    1.3612    1.0784 C   0  0  0  0  0  0  0  0  0  0  0  0
   -5.0502    0.1040    0.5804 C   0  0  0  0  0  0  0  0  0  0  0  0
   -3.0248    1.5945    0.5367 C   0  0  0  0  0  0  0  0  0  0  0  0
   -4.8799   -1.0875    1.2850 C   0  0  0  0  0  0  0  0  0  0  0  0
   -5.8087    0.1199   -0.5902 C   0  0  0  0  0  0  0  0  0  0  0  0
   -0.6853    1.6546    0.1666 C   0  0  0  0  0  0  0  0  0  0  0  0
   -2.6560    2.2534   -0.5866 C   0  0  0  0  0  0  0  0  0  0  0  0
    3.0620    1.4888   -0.0436 C   0  0  0  0  0  0  0  0  0  0  0  0
   -5.4679   -2.2636    0.8191 C   0  0  0  0  0  0  0  0  0  0  0  0
   -6.3969   -1.0561   -1.0561 C   0  0  0  0  0  0  0  0  0  0  0  0
    5.0768   -0.3691   -0.0809 C   0  0  0  0  0  0  0  0  0  0  0  0
    6.9484   -1.2780    0.3735 C   0  0  0  0  0  0  0  0  0  0  0  0
    1.6872    1.9046   -0.5223 C   0  0  0  0  0  0  0  0  0  0  0  0
   -6.2265   -2.2478   -0.3514 C   0  0  0  0  0  0  0  0  0  0  0  0
    8.0605   -2.2467    0.3917 C   0  0  0  0  0  0  0  0  0  0  0  0
   -5.0518    2.2201    0.8084 H   0  0  0  0  0  0  0  0  0  0  0  0
   -4.4086    1.3643    2.1770 H   0  0  0  0  0  0  0  0  0  0  0  0
   -4.2938   -1.1147    2.1998 H   0  0  0  0  0  0  0  0  0  0  0  0
   -5.9484    1.0411   -1.1496 H   0  0  0  0  0  0  0  0  0  0  0  0
   -3.3186    2.7319   -1.2951 H   0  0  0  0  0  0  0  0  0  0  0  0
    3.7837    2.2507   -0.3560 H   0  0  0  0  0  0  0  0  0  0  0  0
    3.0790    1.4273    1.0494 H   0  0  0  0  0  0  0  0  0  0  0  0
    0.9192    0.9284    1.1565 H   0  0  0  0  0  0  0  0  0  0  0  0
   -5.3357   -3.1915    1.3677 H   0  0  0  0  0  0  0  0  0  0  0  0
   -6.9870   -1.0443   -1.9676 H   0  0  0  0  0  0  0  0  0  0  0  0
    7.7294   -3.2149    0.7802 H   0  0  0  0  0  0  0  0  0  0  0  0
    8.4681   -2.3930   -0.6134 H   0  0  0  0  0  0  0  0  0  0  0  0
    8.8717   -1.8880    1.0332 H   0  0  0  0  0  0  0  0  0  0  0  0
    5.3290   -2.3008   -2.1290 H   0  0  0  0  0  0  0  0  0  0  0  0
    4.6521   -3.0549   -0.8527 H   0  0  0  0  0  0  0  0  0  0  0  0
  1 13  1  0  0  0  0
  1 16  1  0  0  0  0
  2 18  1  0  0  0  0
  2 21  1  0  0  0  0
  3 24  1  0  0  0  0
  4 23  2  0  0  0  0
  5 10  1  0  0  0  0
  5 21  1  0  0  0  0
  5 22  1  0  0  0  0
  6 16  1  0  0  0  0
  6 23  1  0  0  0  0
  6 33  1  0  0  0  0
  7 16  2  0  0  0  0
  7 17  1  0  0  0  0
  8  9  1  0  0  0  0
  8 21  2  0  0  0  0
  9 22  2  0  0  0  0
 10 39  1  0  0  0  0
 10 40  1  0  0  0  0
 11 12  1  0  0  0  0
 11 13  1  0  0  0  0
 11 26  1  0  0  0  0
 11 27  1  0  0  0  0
 12 14  2  0  0  0  0
 12 15  1  0  0  0  0
 13 17  2  0  0  0  0
 14 19  1  0  0  0  0
 14 28  1  0  0  0  0
 15 20  2  0  0  0  0
 15 29  1  0  0  0  0
 17 30  1  0  0  0  0
 18 23  1  0  0  0  0
 18 31  1  0  0  0  0
 18 32  1  0  0  0  0
 19 24  2  0  0  0  0
 19 34  1  0  0  0  0
 20 24  1  0  0  0  0
 20 35  1  0  0  0  0
 22 25  1  0  0  0  0
 25 36  1  0  0  0  0
 25 37  1  0  0  0  0
 25 38  1  0  0  0  0
M  END
> <PUBCHEM_COMPOUND_CID>
1639652

> <PUBCHEM_CONFORMER_RMSD>
1

> <PUBCHEM_CONFORMER_DIVERSEORDER>
1
294
19
223
102
245
121
115
270
344
315
51
356
201
60
167
320
289
183
349
305
329
153
353
53
63
79
331
67
15
284
180
264
130
273
254
133
104
240
266
93
238
85
357
295
145
297
212
319
321
81
194
326
146
154
110
265
52
336
113
239
77
260
219
189
49
71
141
302
7
192
32
281
198
204
226
258
144
179
318
342
216
328
34
126
88
176
78
313
293
282
30
283
164
345
279
10
314
221
306
2
12
66
162
228
234
172
123
161
134
177
220
207
193
64
272
187
362
92
36
352
138
280
268
195
116
112
290
242
171
355
29
222
217
86
39
275
45
68
158
205
231
253
160
286
224
255
151
87
150
148
261
44
233
271
38
108
24
251
165
96
132
227
338
186
209
185
143
181
75
37
178
351
169
335
89
122
310
48
244
129
166
91
325
182
152
136
229
56
333
106
347
25
237
208
225
69
73
65
359
311
348
40
247
157
175
35
98
358
82
103
360
97
76
101
61
57
119
263
235
218
346
137
90
99
27
111
117
14
94
170
288
47
149
118
317
168
174
202
83
13
20
215
296
62
128
159
22
322
135
277
26
197
54
332
250
304
243
155
5
316
199
42
252
127
6
3
147
309
257
125
203
16
267
74
259
210
308
59
337
300
330
196
21
23
214
4
107
200
163
124
46
84
8
140
340
206
100
287
323
230
361
339
188
341
262
139
292
236
274
50
299
109
350
72
105
213
248
211
95
278
156
17
11
191
249
9
58
131
70
232
142
55
246
33
173
80
334
28
298
31
241
343
327
114
256
291
307
276
41
354
184
303
285
120
269
18
301
324
312
43
190

> <PUBCHEM_MMFF94_PARTIAL_CHARGES>
33
1 -0.08
10 -0.87
11 0.32
12 -0.14
13 -0.14
14 -0.15
15 -0.15
16 0.44
17 0.08
18 0.29
19 -0.15
2 -0.29
20 -0.15
21 0.24
22 0.01
23 0.57
24 0.19
25 0.18
28 0.15
29 0.15
3 -0.19
30 0.15
33 0.37
34 0.15
35 0.15
39 0.36
4 -0.57
40 0.36
5 0.45
6 -0.49
7 -0.57
8 -0.34
9 -0.34

> <PUBCHEM_EFFECTIVE_ROTOR_COUNT>
7

> <PUBCHEM_PHARMACOPHORE_FEATURES>
8
1 10 donor
1 4 acceptor
1 6 donor
3 5 8 21 cation
3 5 9 22 cation
5 1 7 13 16 17 rings
5 5 8 9 21 22 rings
6 12 14 15 19 20 24 rings

> <PUBCHEM_HEAVY_ATOM_COUNT>
25

> <PUBCHEM_ATOM_DEF_STEREO_COUNT>
0

> <PUBCHEM_ATOM_UDEF_STEREO_COUNT>
0

> <PUBCHEM_BOND_DEF_STEREO_COUNT>
0

> <PUBCHEM_BOND_UDEF_STEREO_COUNT>
0

> <PUBCHEM_ISOTOPIC_ATOM_COUNT>
0

> <PUBCHEM_COMPONENT_COUNT>
1

> <PUBCHEM_CACTVS_TAUTO_COUNT>
3

> <PUBCHEM_CONFORMER_ID>
001904E400000001

> <PUBCHEM_MMFF94_ENERGY>
37.9687

> <PUBCHEM_FEATURE_SELFOVERLAP>
43.175

> <PUBCHEM_SHAPE_FINGERPRINT>
10 15 14476958973912654768
10066227 112 10809340044362557690
10369192 42 11746937573591560913
10939801 23 17986670574977469412
11135609 201 10664100052256318845
11393246 34 18410011027103954565
12596602 18 17846218817732263520
12760667 363 18409731772778511721
12895837 130 8934702410234844568
13782708 43 18413107264522073512
14020679 6 13686289197169060823
14211702 104 18343029886435533047
14251751 18 18342179972616265929
14556957 393 15502664741107149070
14671636 106 18412546522888509526
14951699 99 10591771986704714447
15183329 4 13623529043612459164
15188451 53 18343581854395020073
15352257 5 18343021064820587962
15510800 12 18261681475547464707
15519825 34 15482379972062909511
15728490 51 18341893035153083860
16126227 98 10303808804663474117
16994733 274 9223227438676183582
17857418 61 18335423465094733929
18603816 31 17703494581333899893
190975 80 18342735226726855776
20028762 73 18411983559538938142
2026 5 18409727379096377523
20281389 69 10231757777361607317
20567600 247 18409449189167254960
21033648 29 14404641882910477305
21197605 99 18272089414167138070
21424621 283 10303813189714482652
21585483 132 18260256473575199546
21623969 137 17560803199911108390
229767 44 18060416949592520703
23389318 12 18113623421979201972
23522609 53 18048916019448999004
23559900 14 17750239264994322057
25122255 55 18410300211277929555
25222932 49 18261671485727742770
270888 7 9439412319612794773
2838139 119 8646482994897655136
3014063 24 18410572902909421932
312425 54 17987810596093482553
3504750 166 18266180530450835881
3627633 1 18336544894147532196
397830 11 18130777989057589976
406291 66 18410855507895769039
5104073 3 14835582236079108245
543368 44 9943806673527740625
559249 180 18410576176587390785
5718773 13 18410572902835523298
5719381 36 18115581523034076802
57634706 229 10375868627715810045
59682541 35 18060410319153921666
59682541 52 14851604371818011224
6328613 192 8502378827739509703
636775 72 9367045758692277894
6431902 208 18413389834952788863
96874 4 18410852183190064387

> <PUBCHEM_SHAPE_MULTIPOLES>
479.16
23.76
3.3
1.22
22.65
1.17
-0.03
23.56
-0.85
-2.13
0.82
-0.63
-0.06
-0.73

> <PUBCHEM_SHAPE_SELFOVERLAP>
997.94

> <PUBCHEM_SHAPE_VOLUME>
276.6

> <PUBCHEM_COORDINATE_TYPE>
2
5
10

$$$$
