2251058
  -OEChem-09082001273D

 49 49  0     0  0  0  0  0  0999 V2000
    1.3785   -0.7762   -0.1997 O   0  0  0  0  0  0  0  0  0  0  0  0
   -8.4332    1.0448   -0.7234 O   0  0  0  0  0  0  0  0  0  0  0  0
   -5.1714   -0.2456    0.3890 N   0  0  0  0  0  0  0  0  0  0  0  0
    2.4973    1.8314    0.1689 C   0  0  0  0  0  0  0  0  0  0  0  0
    3.3339    0.6166   -0.0628 C   0  0  0  0  0  0  0  0  0  0  0  0
    3.3840    3.1038    0.3339 C   0  0  0  0  0  0  0  0  0  0  0  0
    1.6365    1.6855    1.4611 C   0  0  0  0  0  0  0  0  0  0  0  0
    1.4835    2.1739   -0.9718 C   0  0  0  0  0  0  0  0  0  0  0  0
   -1.5195   -1.2412   -0.0310 C   0  0  0  0  0  0  0  0  0  0  0  0
   -0.4786   -1.8171    0.9335 C   0  0  0  0  0  0  0  0  0  0  0  0
    2.7417   -0.6343   -0.2373 C   0  0  0  0  0  0  0  0  0  0  0  0
   -2.8612   -1.0147    0.6701 C   0  0  0  0  0  0  0  0  0  0  0  0
    0.8758   -2.0203    0.2655 C   0  0  0  0  0  0  0  0  0  0  0  0
    4.7226    0.7426   -0.1039 C   0  0  0  0  0  0  0  0  0  0  0  0
   -3.9079   -0.4736   -0.3023 C   0  0  0  0  0  0  0  0  0  0  0  0
    3.5382   -1.7589   -0.4528 C   0  0  0  0  0  0  0  0  0  0  0  0
    5.5189   -0.3822   -0.3193 C   0  0  0  0  0  0  0  0  0  0  0  0
    4.9268   -1.6329   -0.4937 C   0  0  0  0  0  0  0  0  0  0  0  0
   -6.1818    0.2607   -0.5292 C   0  0  0  0  0  0  0  0  0  0  0  0
   -7.4840    0.5377    0.2052 C   0  0  0  0  0  0  0  0  0  0  0  0
    3.9661    3.3247   -0.5689 H   0  0  0  0  0  0  0  0  0  0  0  0
    2.7563    3.9860    0.5149 H   0  0  0  0  0  0  0  0  0  0  0  0
    4.0547    3.0322    1.1985 H   0  0  0  0  0  0  0  0  0  0  0  0
    1.1578    2.6376    1.7205 H   0  0  0  0  0  0  0  0  0  0  0  0
    0.8335    0.9518    1.3641 H   0  0  0  0  0  0  0  0  0  0  0  0
    2.2599    1.3892    2.3131 H   0  0  0  0  0  0  0  0  0  0  0  0
    0.9527    3.1108   -0.7663 H   0  0  0  0  0  0  0  0  0  0  0  0
    2.0086    2.2870   -1.9275 H   0  0  0  0  0  0  0  0  0  0  0  0
    0.7256    1.3974   -1.1078 H   0  0  0  0  0  0  0  0  0  0  0  0
   -1.1649   -0.2893   -0.4432 H   0  0  0  0  0  0  0  0  0  0  0  0
   -1.6542   -1.9289   -0.8746 H   0  0  0  0  0  0  0  0  0  0  0  0
   -0.8331   -2.7755    1.3304 H   0  0  0  0  0  0  0  0  0  0  0  0
   -0.3637   -1.1320    1.7819 H   0  0  0  0  0  0  0  0  0  0  0  0
   -2.7223   -0.3101    1.4999 H   0  0  0  0  0  0  0  0  0  0  0  0
   -3.2125   -1.9595    1.1040 H   0  0  0  0  0  0  0  0  0  0  0  0
    0.7752   -2.7098   -0.5809 H   0  0  0  0  0  0  0  0  0  0  0  0
    1.5357   -2.4685    1.0196 H   0  0  0  0  0  0  0  0  0  0  0  0
   -3.5441    0.4622   -0.7439 H   0  0  0  0  0  0  0  0  0  0  0  0
   -4.0502   -1.1962   -1.1150 H   0  0  0  0  0  0  0  0  0  0  0  0
    5.2592    1.6753    0.0204 H   0  0  0  0  0  0  0  0  0  0  0  0
    3.1199   -2.7463   -0.6238 H   0  0  0  0  0  0  0  0  0  0  0  0
    6.6002   -0.2853   -0.3534 H   0  0  0  0  0  0  0  0  0  0  0  0
   -5.0318    0.4186    1.1499 H   0  0  0  0  0  0  0  0  0  0  0  0
    5.5471   -2.5072   -0.6685 H   0  0  0  0  0  0  0  0  0  0  0  0
   -5.8426    1.1850   -1.0141 H   0  0  0  0  0  0  0  0  0  0  0  0
   -6.3719   -0.4623   -1.3323 H   0  0  0  0  0  0  0  0  0  0  0  0
   -7.8880   -0.3778    0.6501 H   0  0  0  0  0  0  0  0  0  0  0  0
   -7.3419    1.2835    0.9946 H   0  0  0  0  0  0  0  0  0  0  0  0
   -9.2540    1.2122   -0.2295 H   0  0  0  0  0  0  0  0  0  0  0  0
  1 11  1  0  0  0  0
  1 13  1  0  0  0  0
  2 20  1  0  0  0  0
  2 49  1  0  0  0  0
  3 15  1  0  0  0  0
  3 19  1  0  0  0  0
  3 43  1  0  0  0  0
  4  5  1  0  0  0  0
  4  6  1  0  0  0  0
  4  7  1  0  0  0  0
  4  8  1  0  0  0  0
  5 11  1  0  0  0  0
  5 14  2  0  0  0  0
  6 21  1  0  0  0  0
  6 22  1  0  0  0  0
  6 23  1  0  0  0  0
  7 24  1  0  0  0  0
  7 25  1  0  0  0  0
  7 26  1  0  0  0  0
  8 27  1  0  0  0  0
  8 28  1  0  0  0  0
  8 29  1  0  0  0  0
  9 10  1  0  0  0  0
  9 12  1  0  0  0  0
  9 30  1  0  0  0  0
  9 31  1  0  0  0  0
 10 13  1  0  0  0  0
 10 32  1  0  0  0  0
 10 33  1  0  0  0  0
 11 16  2  0  0  0  0
 12 15  1  0  0  0  0
 12 34  1  0  0  0  0
 12 35  1  0  0  0  0
 13 36  1  0  0  0  0
 13 37  1  0  0  0  0
 14 17  1  0  0  0  0
 14 40  1  0  0  0  0
 15 38  1  0  0  0  0
 15 39  1  0  0  0  0
 16 18  1  0  0  0  0
 16 41  1  0  0  0  0
 17 18  2  0  0  0  0
 17 42  1  0  0  0  0
 18 44  1  0  0  0  0
 19 20  1  0  0  0  0
 19 45  1  0  0  0  0
 19 46  1  0  0  0  0
 20 47  1  0  0  0  0
 20 48  1  0  0  0  0
M  END
> <PUBCHEM_COMPOUND_CID>
2251058

> <PUBCHEM_CONFORMER_RMSD>
1

> <PUBCHEM_CONFORMER_DIVERSEORDER>
1
55
63
32
9
20
39
47
14
37
44
56
15
26
53
65
4
58
29
42
36
59
22
60
61
45
8
18
41
31
49
16
28
11
48
7
62
10
33
17
66
50
6
30
34
69
68
70
35
25
23
27
21
46
43
5
13
24
67
2
19
64
51
54
40
57
52
3
12
38

> <PUBCHEM_MMFF94_PARTIAL_CHARGES>
20
1 -0.36
11 0.08
13 0.28
14 -0.15
15 0.27
16 -0.15
17 -0.15
18 -0.15
19 0.27
2 -0.68
20 0.28
3 -0.9
4 0.14
40 0.15
41 0.15
42 0.15
43 0.36
44 0.15
49 0.4
5 -0.14

> <PUBCHEM_EFFECTIVE_ROTOR_COUNT>
10

> <PUBCHEM_PHARMACOPHORE_FEATURES>
7
1 1 acceptor
1 2 acceptor
1 2 donor
1 3 cation
1 3 donor
4 4 6 7 8 hydrophobe
6 5 11 14 16 17 18 rings

> <PUBCHEM_HEAVY_ATOM_COUNT>
20

> <PUBCHEM_ATOM_DEF_STEREO_COUNT>
0

> <PUBCHEM_ATOM_UDEF_STEREO_COUNT>
0

> <PUBCHEM_BOND_DEF_STEREO_COUNT>
0

> <PUBCHEM_BOND_UDEF_STEREO_COUNT>
0

> <PUBCHEM_ISOTOPIC_ATOM_COUNT>
0

> <PUBCHEM_COMPONENT_COUNT>
1

> <PUBCHEM_CACTVS_TAUTO_COUNT>
1

> <PUBCHEM_CONFORMER_ID>
0022593200000001

> <PUBCHEM_MMFF94_ENERGY>
49.5822

> <PUBCHEM_FEATURE_SELFOVERLAP>
35.521

> <PUBCHEM_SHAPE_FINGERPRINT>
10411042 1 17979074886877182622
13167372 99 18200881678055314801
13402501 40 18260265231276460829
13878862 14 18339626923896939261
14170010 4 18342737416495252506
14251757 52 16660656175534237374
14464042 87 17917718972159688065
14681490 219 18342454816723017649
15003188 100 18335982047498834423
15183329 4 18131072619640018417
15483637 11 18049161073361300965
18335252 114 18341605985113605527
20157964 124 18272091595366653719
20554085 129 16370720414847653105
20612939 158 18343024406415732233
21033648 29 17968658336303865291
21792934 111 18341888603321964576
221357 26 18341612581729944517
22224240 67 8646475302864669574
22289505 5 18412267242186341510
23419403 2 17845068729086555056
23557571 272 13398645930177992034
335352 9 18411422808845824654
54446538 1 18271808995677983361
59682541 35 9223221923980652966
59755656 215 18260266313850701821

> <PUBCHEM_SHAPE_MULTIPOLES>
394.87
17.47
2.67
0.92
45.63
1.22
-0.14
3.97
3.55
-3.29
-0.21
0.02
0.18
1.03

> <PUBCHEM_SHAPE_SELFOVERLAP>
779.522

> <PUBCHEM_SHAPE_VOLUME>
237.5

> <PUBCHEM_COORDINATE_TYPE>
2
5
10

$$$$
