1244222
  -OEChem-09082001323D

 24 25  0     0  0  0  0  0  0999 V2000
    1.8999    1.1747   -0.0224 S   0  0  0  0  0  0  0  0  0  0  0  0
    5.3385   -0.8385    0.0224 F   0  0  0  0  0  0  0  0  0  0  0  0
    4.9192    0.9778   -1.0862 F   0  0  0  0  0  0  0  0  0  0  0  0
    4.8872    1.0026    1.0879 F   0  0  0  0  0  0  0  0  0  0  0  0
   -5.2316    0.5579    0.0160 O   0  0  0  0  0  0  0  0  0  0  0  0
   -1.7283   -1.7173   -0.0020 O   0  0  0  0  0  0  0  0  0  0  0  0
   -0.5964    0.3432   -0.0253 N   0  0  0  0  0  0  0  0  0  0  0  0
    1.1885   -1.2870    0.0060 N   0  0  0  0  0  0  0  0  0  0  0  0
    2.5724   -1.2975    0.0148 N   0  0  0  0  0  0  0  0  0  0  0  0
   -3.0097    0.2205   -0.0060 C   0  0  0  0  0  0  0  0  0  0  0  0
   -4.2477   -0.3790    0.0026 C   0  0  0  0  0  0  0  0  0  0  0  0
   -1.7520   -0.4657   -0.0196 C   0  0  0  0  0  0  0  0  0  0  0  0
   -3.2485    1.6155    0.0026 C   0  0  0  0  0  0  0  0  0  0  0  0
    0.7395   -0.0702   -0.0131 C   0  0  0  0  0  0  0  0  0  0  0  0
   -4.6939   -1.7806    0.0008 C   0  0  0  0  0  0  0  0  0  0  0  0
    3.0699   -0.0793    0.0015 C   0  0  0  0  0  0  0  0  0  0  0  0
   -4.6152    1.7690    0.0159 C   0  0  0  0  0  0  0  0  0  0  0  0
    4.5083    0.2538    0.0042 C   0  0  0  0  0  0  0  0  0  0  0  0
   -0.7026    1.3532   -0.0366 H   0  0  0  0  0  0  0  0  0  0  0  0
   -2.5345    2.4265    0.0001 H   0  0  0  0  0  0  0  0  0  0  0  0
   -4.3268   -2.3023   -0.8884 H   0  0  0  0  0  0  0  0  0  0  0  0
   -4.3259   -2.3047    0.8882 H   0  0  0  0  0  0  0  0  0  0  0  0
   -5.7865   -1.8524    0.0010 H   0  0  0  0  0  0  0  0  0  0  0  0
   -5.2712    2.6271    0.0260 H   0  0  0  0  0  0  0  0  0  0  0  0
  1 14  1  0  0  0  0
  1 16  1  0  0  0  0
  2 18  1  0  0  0  0
  3 18  1  0  0  0  0
  4 18  1  0  0  0  0
  5 11  1  0  0  0  0
  5 17  1  0  0  0  0
  6 12  2  0  0  0  0
  7 12  1  0  0  0  0
  7 14  1  0  0  0  0
  7 19  1  0  0  0  0
  8  9  1  0  0  0  0
  8 14  2  0  0  0  0
  9 16  2  0  0  0  0
 10 11  2  0  0  0  0
 10 12  1  0  0  0  0
 10 13  1  0  0  0  0
 11 15  1  0  0  0  0
 13 17  2  0  0  0  0
 13 20  1  0  0  0  0
 15 21  1  0  0  0  0
 15 22  1  0  0  0  0
 15 23  1  0  0  0  0
 16 18  1  0  0  0  0
 17 24  1  0  0  0  0
M  END
> <PUBCHEM_COMPOUND_CID>
1244222

> <PUBCHEM_CONFORMER_RMSD>
0.6

> <PUBCHEM_CONFORMER_DIVERSEORDER>
1
7
10
8
5
6
2
9
4
3

> <PUBCHEM_MMFF94_PARTIAL_CHARGES>
21
1 -0.08
10 -0.09
11 -0.04
12 0.72
13 -0.15
14 0.44
15 0.18
16 0.2
17 -0.01
18 1.2
19 0.37
2 -0.34
20 0.15
24 0.15
3 -0.34
4 -0.34
5 -0.28
6 -0.57
7 -0.49
8 -0.34
9 -0.34

> <PUBCHEM_EFFECTIVE_ROTOR_COUNT>
4

> <PUBCHEM_PHARMACOPHORE_FEATURES>
6
1 5 acceptor
1 6 acceptor
1 7 donor
1 9 acceptor
5 1 8 9 14 16 rings
5 5 10 11 13 17 rings

> <PUBCHEM_HEAVY_ATOM_COUNT>
18

> <PUBCHEM_ATOM_DEF_STEREO_COUNT>
0

> <PUBCHEM_ATOM_UDEF_STEREO_COUNT>
0

> <PUBCHEM_BOND_DEF_STEREO_COUNT>
0

> <PUBCHEM_BOND_UDEF_STEREO_COUNT>
0

> <PUBCHEM_ISOTOPIC_ATOM_COUNT>
0

> <PUBCHEM_COMPONENT_COUNT>
1

> <PUBCHEM_CACTVS_TAUTO_COUNT>
3

> <PUBCHEM_CONFORMER_ID>
0012FC3E00000001

> <PUBCHEM_MMFF94_ENERGY>
16.8613

> <PUBCHEM_FEATURE_SELFOVERLAP>
30.447

> <PUBCHEM_SHAPE_FINGERPRINT>
10014705 185 18187080616693489397
10680689 15 17703788137362633703
10912923 1 17749105603943607144
11089746 13 17846486024838152848
11287383 113 18202001057732095642
12107183 9 17614838518200476025
12236239 1 17894912931972303573
12507557 5 18412826897889641673
13167823 11 18408037403247293643
14123238 8 18186801387325031493
14251764 18 18114176454810808546
14251764 75 16622949266691662801
15196674 1 18410575071783490758
15375358 24 18273216387124311822
17834072 33 18409450314353812284
17844677 252 18343589563645051720
19489759 90 18334855022078354257
200 152 17917709111088576283
20645477 56 18410575051195085481
20645477 70 17274832303090944494
21267235 1 18409738391191284779
212847 35 18410293610504247208
21709351 56 18335415785735355165
23402539 116 18412257342239180213
23402655 69 18343300327920620613
23557571 272 18272660060332006453
23559900 14 18128535955751673814
2916195 48 18201429333324337544
300161 21 18335413544078761765
3004659 81 18335986377147881902
34797466 226 17561089149943418308
3545911 37 18412265013056097257
4214541 1 18410855451912864513
42788 4 18410855451538233700
441001 317 18272932691987242801
4990 188 18131639967428882870
5104073 3 18410573950923848843
542803 24 17967253104593187644
633830 44 17894632586957314966
77779 3 18410856546934346215
9709674 26 18411144640672509543

> <PUBCHEM_SHAPE_MULTIPOLES>
325.78
12.91
1.69
0.67
5
0.09
0
-1.59
-0.07
-1.51
-0.01
0.42
-0.11
-0.02

> <PUBCHEM_SHAPE_SELFOVERLAP>
687.07

> <PUBCHEM_SHAPE_VOLUME>
186.4

> <PUBCHEM_COORDINATE_TYPE>
2
5
10

$$$$
