2299442
  -OEChem-09082001333D

 43 45  0     0  0  0  0  0  0999 V2000
    0.8776   -0.1010   -0.4595 S   0  0  0  0  0  0  0  0  0  0  0  0
   -6.6753    1.4069    2.1999 O   0  0  0  0  0  0  0  0  0  0  0  0
   -1.8253    0.3130   -0.4906 N   0  0  0  0  0  0  0  0  0  0  0  0
   -1.9773    2.4738   -0.7993 N   0  0  0  0  0  0  0  0  0  0  0  0
   -0.6402    2.1318   -0.7643 N   0  0  0  0  0  0  0  0  0  0  0  0
    6.7137   -0.1359    2.9695 N   0  0  0  0  0  0  0  0  0  0  0  0
   -4.1421    1.2529   -0.6017 C   0  0  0  0  0  0  0  0  0  0  0  0
   -2.6715    1.3705   -0.6337 C   0  0  0  0  0  0  0  0  0  0  0  0
   -4.7189    1.4078    0.8187 C   0  0  0  0  0  0  0  0  0  0  0  0
   -2.1941   -1.0181   -0.2957 C   0  0  0  0  0  0  0  0  0  0  0  0
   -0.6219    0.8667   -0.5827 C   0  0  0  0  0  0  0  0  0  0  0  0
   -6.2306    1.2334    0.8615 C   0  0  0  0  0  0  0  0  0  0  0  0
    2.1494    1.1840   -0.6576 C   0  0  0  0  0  0  0  0  0  0  0  0
   -2.3876   -1.8438   -1.3955 C   0  0  0  0  0  0  0  0  0  0  0  0
   -2.3642   -1.5000    0.9958 C   0  0  0  0  0  0  0  0  0  0  0  0
    3.5337    0.6327   -0.5930 C   0  0  0  0  0  0  0  0  0  0  0  0
   -2.7576   -3.1746   -1.2005 C   0  0  0  0  0  0  0  0  0  0  0  0
   -2.7339   -2.8308    1.1909 C   0  0  0  0  0  0  0  0  0  0  0  0
   -2.9306   -3.6682    0.0927 C   0  0  0  0  0  0  0  0  0  0  0  0
    4.1933    0.5450    0.6329 C   0  0  0  0  0  0  0  0  0  0  0  0
    4.1681    0.2033   -1.7587 C   0  0  0  0  0  0  0  0  0  0  0  0
    5.4875    0.0281    0.6932 C   0  0  0  0  0  0  0  0  0  0  0  0
    5.4622   -0.3138   -1.6983 C   0  0  0  0  0  0  0  0  0  0  0  0
    6.1220   -0.4013   -0.4724 C   0  0  0  0  0  0  0  0  0  0  0  0
    6.1637   -0.0624    1.9486 C   0  0  0  0  0  0  0  0  0  0  0  0
   -4.4763    0.3039   -1.0360 H   0  0  0  0  0  0  0  0  0  0  0  0
   -4.5689    2.0372   -1.2398 H   0  0  0  0  0  0  0  0  0  0  0  0
   -4.4552    2.3946    1.2220 H   0  0  0  0  0  0  0  0  0  0  0  0
   -4.2586    0.6866    1.5043 H   0  0  0  0  0  0  0  0  0  0  0  0
   -6.7265    1.9771    0.2298 H   0  0  0  0  0  0  0  0  0  0  0  0
   -6.5164    0.2316    0.5256 H   0  0  0  0  0  0  0  0  0  0  0  0
    2.0153    1.9442    0.1213 H   0  0  0  0  0  0  0  0  0  0  0  0
    1.9971    1.6940   -1.6164 H   0  0  0  0  0  0  0  0  0  0  0  0
   -2.2565   -1.4716   -2.4083 H   0  0  0  0  0  0  0  0  0  0  0  0
   -2.2111   -0.8594    1.8604 H   0  0  0  0  0  0  0  0  0  0  0  0
   -2.9109   -3.8266   -2.0555 H   0  0  0  0  0  0  0  0  0  0  0  0
   -2.8681   -3.2152    2.1977 H   0  0  0  0  0  0  0  0  0  0  0  0
   -3.2184   -4.7044    0.2445 H   0  0  0  0  0  0  0  0  0  0  0  0
    3.6962    0.8792    1.5414 H   0  0  0  0  0  0  0  0  0  0  0  0
    3.6651    0.2646   -2.7202 H   0  0  0  0  0  0  0  0  0  0  0  0
   -7.6407    1.2898    2.1970 H   0  0  0  0  0  0  0  0  0  0  0  0
    5.9560   -0.6486   -2.6059 H   0  0  0  0  0  0  0  0  0  0  0  0
    7.1305   -0.8069   -0.4418 H   0  0  0  0  0  0  0  0  0  0  0  0
  1 11  1  0  0  0  0
  1 13  1  0  0  0  0
  2 12  1  0  0  0  0
  2 41  1  0  0  0  0
  3  8  1  0  0  0  0
  3 10  1  0  0  0  0
  3 11  1  0  0  0  0
  4  5  1  0  0  0  0
  4  8  2  0  0  0  0
  5 11  2  0  0  0  0
  6 25  3  0  0  0  0
  7  8  1  0  0  0  0
  7  9  1  0  0  0  0
  7 26  1  0  0  0  0
  7 27  1  0  0  0  0
  9 12  1  0  0  0  0
  9 28  1  0  0  0  0
  9 29  1  0  0  0  0
 10 14  2  0  0  0  0
 10 15  1  0  0  0  0
 12 30  1  0  0  0  0
 12 31  1  0  0  0  0
 13 16  1  0  0  0  0
 13 32  1  0  0  0  0
 13 33  1  0  0  0  0
 14 17  1  0  0  0  0
 14 34  1  0  0  0  0
 15 18  2  0  0  0  0
 15 35  1  0  0  0  0
 16 20  2  0  0  0  0
 16 21  1  0  0  0  0
 17 19  2  0  0  0  0
 17 36  1  0  0  0  0
 18 19  1  0  0  0  0
 18 37  1  0  0  0  0
 19 38  1  0  0  0  0
 20 22  1  0  0  0  0
 20 39  1  0  0  0  0
 21 23  2  0  0  0  0
 21 40  1  0  0  0  0
 22 24  2  0  0  0  0
 22 25  1  0  0  0  0
 23 24  1  0  0  0  0
 23 42  1  0  0  0  0
 24 43  1  0  0  0  0
M  END
> <PUBCHEM_COMPOUND_CID>
2299442

> <PUBCHEM_CONFORMER_RMSD>
0.8

> <PUBCHEM_CONFORMER_DIVERSEORDER>
1
161
98
193
101
245
175
233
160
115
239
164
27
56
109
118
119
235
122
184
81
181
247
46
269
183
6
174
236
261
141
120
146
285
72
96
166
100
142
270
221
133
90
177
94
182
266
290
265
242
128
172
93
255
91
264
69
55
102
103
63
140
254
230
158
86
4
104
170
138
167
147
143
292
99
244
201
123
116
70
237
137
253
82
232
159
13
192
105
268
113
29
150
263
121
205
111
73
106
2
26
108
131
204
225
139
189
78
256
273
226
188
125
185
84
210
178
31
199
222
151
240
33
281
130
49
287
144
25
203
262
7
211
195
219
157
62
135
20
87
21
251
110
196
293
248
288
89
215
134
35
8
260
14
76
41
47
77
97
107
228
163
191
156
180
132
124
271
40
252
278
45
10
223
18
243
289
112
54
43
80
3
30
126
155
207
24
16
162
277
44
22
179
283
5
117
68
258
282
187
12
250
194
214
212
229
249
71
274
92
169
64
9
85
15
257
206
95
280
52
267
218
42
198
208
127
129
74
259
59
209
276
88
153
79
65
50
202
83
36
173
241
246
165
66
57
17
279
28
272
176
227
154
224
75
284
23
275
286
48
231
37
197
11
39
152
114
238
216
186
171
291
190
149
34
217
136
19
145
200
61
32
234
220
38
213
60
148
53
58
168
51
67

> <PUBCHEM_MMFF94_PARTIAL_CHARGES>
34
1 -0.29
10 -0.02
11 0.24
12 0.28
13 0.37
14 -0.15
15 -0.15
16 -0.14
17 -0.15
18 -0.15
19 -0.15
2 -0.68
20 -0.15
21 -0.15
22 0.07
23 -0.15
24 -0.15
25 0.48
3 0.33
34 0.15
35 0.15
36 0.15
37 0.15
38 0.15
39 0.15
4 -0.34
40 0.15
41 0.4
42 0.15
43 0.15
5 -0.34
6 -0.56
7 0.18
8 0.01

> <PUBCHEM_EFFECTIVE_ROTOR_COUNT>
7

> <PUBCHEM_PHARMACOPHORE_FEATURES>
8
1 2 acceptor
1 2 donor
1 6 acceptor
3 3 4 8 cation
3 3 5 11 cation
5 3 4 5 8 11 rings
6 10 14 15 17 18 19 rings
6 16 20 21 22 23 24 rings

> <PUBCHEM_HEAVY_ATOM_COUNT>
25

> <PUBCHEM_ATOM_DEF_STEREO_COUNT>
0

> <PUBCHEM_ATOM_UDEF_STEREO_COUNT>
0

> <PUBCHEM_BOND_DEF_STEREO_COUNT>
0

> <PUBCHEM_BOND_UDEF_STEREO_COUNT>
0

> <PUBCHEM_ISOTOPIC_ATOM_COUNT>
0

> <PUBCHEM_COMPONENT_COUNT>
1

> <PUBCHEM_CACTVS_TAUTO_COUNT>
1

> <PUBCHEM_CONFORMER_ID>
0023163200000001

> <PUBCHEM_MMFF94_ENERGY>
69.0744

> <PUBCHEM_FEATURE_SELFOVERLAP>
43.216

> <PUBCHEM_SHAPE_FINGERPRINT>
11405975 8 18411981399059436440
11524674 6 18342463617189595855
11578080 2 17844813787895968961
12035758 1 18267326312641369849
12596602 18 14979666715555425844
12616971 3 17168137941088834926
12633257 1 18408890641671811428
13140716 1 18338239387467436365
13533116 47 17702391641425727630
13540713 5 18119823653457317269
13726171 33 17977982225268271548
14844126 61 18338223977029748251
14866123 147 18334582390861955523
15042514 8 18336273435344401981
15250474 111 17968084348918002706
15348495 7 18201146746336089200
15537594 2 17821731632898194232
16994733 274 15338570310996906291
20645477 70 14562527350517962104
21033648 29 17846491557077640418
21424621 283 17559967532620058753
22224240 67 18270972259119307865
23559900 14 18342464746829597452
312425 54 18272362067217336034
3383291 50 18342457088834726119
4015057 19 17702929444335606969
44062 13 18409451401334057166
5080951 261 18198035115027584375
5104073 3 18338230591601085848
5364581 5 18127394864878036152
59755656 520 18342745083544619397

> <PUBCHEM_SHAPE_MULTIPOLES>
492.54
16.72
3.02
1.92
16.15
2.75
-1.07
-3.14
-8.87
-6.48
0.25
2.29
0.14
-1.01

> <PUBCHEM_SHAPE_SELFOVERLAP>
1040.548

> <PUBCHEM_SHAPE_VOLUME>
277.4

> <PUBCHEM_COORDINATE_TYPE>
2
5
10

$$$$
