2109473
  -OEChem-09082001433D

 44 47  0     0  0  0  0  0  0999 V2000
   -1.3482   -2.3849    0.5201 S   0  0  0  0  0  0  0  0  0  0  0  0
    5.1835   -2.0400   -0.8537 O   0  0  0  0  0  0  0  0  0  0  0  0
    0.5047   -0.8955    2.4190 O   0  0  0  0  0  0  0  0  0  0  0  0
    2.0472   -0.8590    0.6390 N   0  0  0  0  0  0  0  0  0  0  0  0
    4.5166    0.0918   -0.3886 N   0  0  0  0  0  0  0  0  0  0  0  0
   -2.1368   -0.1723   -0.8800 N   0  0  0  0  0  0  0  0  0  0  0  0
   -0.2148   -0.9974   -1.5225 N   0  0  0  0  0  0  0  0  0  0  0  0
   -0.4968    0.1072   -2.3013 N   0  0  0  0  0  0  0  0  0  0  0  0
    2.3153    0.5503    0.5599 C   0  0  0  0  0  0  0  0  0  0  0  0
    2.9312   -1.7506   -0.1164 C   0  0  0  0  0  0  0  0  0  0  0  0
    3.5436    0.9956    0.0506 C   0  0  0  0  0  0  0  0  0  0  0  0
    4.3198   -1.2604   -0.4485 C   0  0  0  0  0  0  0  0  0  0  0  0
    0.9756   -1.3836    1.3895 C   0  0  0  0  0  0  0  0  0  0  0  0
    1.3885    1.5276    0.9601 C   0  0  0  0  0  0  0  0  0  0  0  0
    0.3861   -2.6829    0.8837 C   0  0  0  0  0  0  0  0  0  0  0  0
    3.8527    2.3621   -0.0145 C   0  0  0  0  0  0  0  0  0  0  0  0
    1.6923    2.8918    0.8867 C   0  0  0  0  0  0  0  0  0  0  0  0
    2.9265    3.3093    0.4061 C   0  0  0  0  0  0  0  0  0  0  0  0
   -1.2056   -1.1176   -0.7068 C   0  0  0  0  0  0  0  0  0  0  0  0
   -3.3377    0.0289   -0.1995 C   0  0  0  0  0  0  0  0  0  0  0  0
   -1.6525    0.5876   -1.9012 C   0  0  0  0  0  0  0  0  0  0  0  0
   -4.4975   -0.5795   -0.6618 C   0  0  0  0  0  0  0  0  0  0  0  0
   -3.3576    0.8322    0.9335 C   0  0  0  0  0  0  0  0  0  0  0  0
   -2.3519    1.7663   -2.4479 C   0  0  0  0  0  0  0  0  0  0  0  0
   -5.6979   -0.3812    0.0202 C   0  0  0  0  0  0  0  0  0  0  0  0
   -4.5581    1.0305    1.6155 C   0  0  0  0  0  0  0  0  0  0  0  0
   -5.7282    0.4237    1.1589 C   0  0  0  0  0  0  0  0  0  0  0  0
    3.0417   -2.6857    0.4452 H   0  0  0  0  0  0  0  0  0  0  0  0
    2.4367   -1.9712   -1.0698 H   0  0  0  0  0  0  0  0  0  0  0  0
    5.4159    0.4615   -0.6839 H   0  0  0  0  0  0  0  0  0  0  0  0
    0.4005    1.2575    1.3216 H   0  0  0  0  0  0  0  0  0  0  0  0
    0.8620   -3.0851   -0.0096 H   0  0  0  0  0  0  0  0  0  0  0  0
    0.4758   -3.4334    1.6753 H   0  0  0  0  0  0  0  0  0  0  0  0
    4.8138    2.6963   -0.3980 H   0  0  0  0  0  0  0  0  0  0  0  0
    0.9569    3.6257    1.2040 H   0  0  0  0  0  0  0  0  0  0  0  0
    3.1628    4.3674    0.3513 H   0  0  0  0  0  0  0  0  0  0  0  0
   -4.4874   -1.2093   -1.5477 H   0  0  0  0  0  0  0  0  0  0  0  0
   -2.4526    1.3100    1.3000 H   0  0  0  0  0  0  0  0  0  0  0  0
   -1.7698    2.2117   -3.2611 H   0  0  0  0  0  0  0  0  0  0  0  0
   -2.4897    2.5338   -1.6800 H   0  0  0  0  0  0  0  0  0  0  0  0
   -3.3310    1.4917   -2.8524 H   0  0  0  0  0  0  0  0  0  0  0  0
   -6.6090   -0.8536   -0.3352 H   0  0  0  0  0  0  0  0  0  0  0  0
   -4.5818    1.6570    2.5023 H   0  0  0  0  0  0  0  0  0  0  0  0
   -6.6628    0.5781    1.6901 H   0  0  0  0  0  0  0  0  0  0  0  0
  1 15  1  0  0  0  0
  1 19  1  0  0  0  0
  2 12  2  0  0  0  0
  3 13  2  0  0  0  0
  4  9  1  0  0  0  0
  4 10  1  0  0  0  0
  4 13  1  0  0  0  0
  5 11  1  0  0  0  0
  5 12  1  0  0  0  0
  5 30  1  0  0  0  0
  6 19  1  0  0  0  0
  6 20  1  0  0  0  0
  6 21  1  0  0  0  0
  7  8  1  0  0  0  0
  7 19  2  0  0  0  0
  8 21  2  0  0  0  0
  9 11  1  0  0  0  0
  9 14  2  0  0  0  0
 10 12  1  0  0  0  0
 10 28  1  0  0  0  0
 10 29  1  0  0  0  0
 11 16  2  0  0  0  0
 13 15  1  0  0  0  0
 14 17  1  0  0  0  0
 14 31  1  0  0  0  0
 15 32  1  0  0  0  0
 15 33  1  0  0  0  0
 16 18  1  0  0  0  0
 16 34  1  0  0  0  0
 17 18  2  0  0  0  0
 17 35  1  0  0  0  0
 18 36  1  0  0  0  0
 20 22  2  0  0  0  0
 20 23  1  0  0  0  0
 21 24  1  0  0  0  0
 22 25  1  0  0  0  0
 22 37  1  0  0  0  0
 23 26  2  0  0  0  0
 23 38  1  0  0  0  0
 24 39  1  0  0  0  0
 24 40  1  0  0  0  0
 24 41  1  0  0  0  0
 25 27  2  0  0  0  0
 25 42  1  0  0  0  0
 26 27  1  0  0  0  0
 26 43  1  0  0  0  0
 27 44  1  0  0  0  0
M  END
> <PUBCHEM_COMPOUND_CID>
2109473

> <PUBCHEM_CONFORMER_RMSD>
0.8

> <PUBCHEM_CONFORMER_DIVERSEORDER>
1
73
111
144
55
8
187
328
220
274
308
56
176
325
140
307
26
120
237
150
266
166
3
189
214
75
142
201
84
294
20
283
25
48
115
272
178
89
252
157
228
268
324
107
51
260
316
50
333
43
4
96
147
257
254
132
192
305
143
62
177
124
119
79
165
248
156
139
88
112
77
131
172
271
277
306
234
151
13
60
326
53
317
185
30
250
59
160
188
45
311
202
229
6
276
31
114
148
300
334
101
18
287
100
12
5
242
7
105
175
231
21
235
152
223
95
121
298
245
70
158
278
233
292
236
288
22
241
42
17
256
86
129
128
197
282
68
279
61
218
249
191
285
38
320
28
312
57
224
118
85
269
286
103
330
46
83
323
116
2
47
155
138
108
23
15
32
263
141
36
72
37
170
194
19
264
227
297
33
106
87
295
76
314
321
200
212
123
41
251
290
247
216
14
63
64
217
104
296
199
80
173
27
91
303
58
109
293
10
299
164
97
204
146
137
134
11
35
301
329
262
211
213
125
318
289
267
113
198
313
145
246
270
9
331
133
34
221
206
29
181
154
183
238
153
67
261
71
205
232
319
315
174
193
179
162
207
284
291
117
93
171
302
190
98
265
219
74
169
240
195
281
243
90
69
322
44
135
186
215
66
92
126
99
78
102
16
110
40
239
304
161
182
332
310
130
273
275
209
309
136
253
39
81
327
94
24
222
244
258
54
49
159
196
280
259
52
226
208
127
163
255
149
180
225
82
184
168
230
122
65
167
203
210

> <PUBCHEM_MMFF94_PARTIAL_CHARGES>
37
1 -0.29
10 0.36
11 0.12
12 0.57
13 0.57
14 -0.15
15 0.29
16 -0.15
17 -0.15
18 -0.15
19 0.24
2 -0.57
20 -0.02
21 0.01
22 -0.15
23 -0.15
24 0.18
25 -0.15
26 -0.15
27 -0.15
3 -0.57
30 0.37
31 0.15
34 0.15
35 0.15
36 0.15
37 0.15
38 0.15
4 -0.48
42 0.15
43 0.15
44 0.15
5 -0.55
6 0.33
7 -0.34
8 -0.34
9 0.12

> <PUBCHEM_EFFECTIVE_ROTOR_COUNT>
5.6

> <PUBCHEM_PHARMACOPHORE_FEATURES>
9
1 2 acceptor
1 3 acceptor
1 5 donor
3 6 7 19 cation
3 6 8 21 cation
5 6 7 8 19 21 rings
6 20 22 23 25 26 27 rings
6 4 5 9 10 11 12 rings
6 9 11 14 16 17 18 rings

> <PUBCHEM_HEAVY_ATOM_COUNT>
27

> <PUBCHEM_ATOM_DEF_STEREO_COUNT>
0

> <PUBCHEM_ATOM_UDEF_STEREO_COUNT>
0

> <PUBCHEM_BOND_DEF_STEREO_COUNT>
0

> <PUBCHEM_BOND_UDEF_STEREO_COUNT>
0

> <PUBCHEM_ISOTOPIC_ATOM_COUNT>
0

> <PUBCHEM_COMPONENT_COUNT>
1

> <PUBCHEM_CACTVS_TAUTO_COUNT>
2

> <PUBCHEM_CONFORMER_ID>
0020302100000001

> <PUBCHEM_MMFF94_ENERGY>
101.6805

> <PUBCHEM_FEATURE_SELFOVERLAP>
48.281

> <PUBCHEM_SHAPE_FINGERPRINT>
10165383 225 18113625598941960726
10366900 7 17749390334758677443
10906281 52 18340208613657751840
11045977 3 18334301976562448627
11578080 2 17826539900637072620
11796584 16 13623540052225309139
12467345 10 18202850945776485673
12596602 18 18411984702479715291
12633257 1 18335409201444904170
12778500 126 18340499850514883961
128993 33 18189313788685385628
13782708 43 17677052326454047594
14251751 93 17916308242732843369
14341114 328 18273217504459101451
14429115 67 11025783285104778241
14840074 17 17894353289544939023
17349148 13 11024107663548769115
20691752 17 17023453282903914370
21033648 29 17895462688018690285
21503847 285 18413671300933149297
221357 26 18410291380767244308
23536364 44 17975699394626803350
238 59 17829847097672904143
2637199 183 18272092729137468337
3524813 1 18113333094272969006
3797600 57 14129059227261102368
474 4 18343302582963060899
6086070 43 18194661702022027725
6287921 2 17900830658087680716
6442390 28 17895475933117797090
7288768 16 17904186380218306624
9981440 41 17122520530497137096

> <PUBCHEM_SHAPE_MULTIPOLES>
522.85
10.69
3
1.87
5.94
0.77
0.57
1.31
-0.88
-3.45
-0.58
1.32
0.33
0.6

> <PUBCHEM_SHAPE_SELFOVERLAP>
1132.702

> <PUBCHEM_SHAPE_VOLUME>
287.5

> <PUBCHEM_COORDINATE_TYPE>
2
5
10

$$$$
