1370828
  -OEChem-09082001313D

 46 51  0     1  0  0  0  0  0999 V2000
    0.5695    1.6860    0.1529 O   0  0  0  0  0  0  0  0  0  0  0  0
   -1.5671    2.4795    0.2735 O   0  0  0  0  0  0  0  0  0  0  0  0
    5.1524    0.0526    0.0242 N   0  0  1  0  0  0  0  0  0  0  0  0
   -3.5298    0.8296   -0.4311 N   0  0  0  0  0  0  0  0  0  0  0  0
   -3.4027   -1.1662    0.5391 N   0  0  0  0  0  0  0  0  0  0  0  0
    3.7750   -0.1861    0.0098 C   0  0  0  0  0  0  0  0  0  0  0  0
    2.8499    0.8830    0.0541 C   0  0  0  0  0  0  0  0  0  0  0  0
    5.6400    1.3904    0.3448 C   0  0  0  0  0  0  0  0  0  0  0  0
    6.0708   -1.0702    0.1899 C   0  0  0  0  0  0  0  0  0  0  0  0
    3.2703   -1.5058   -0.0874 C   0  0  0  0  0  0  0  0  0  0  0  0
    3.3336    2.3112    0.1413 C   0  0  0  0  0  0  0  0  0  0  0  0
    4.7762    2.4437   -0.3314 C   0  0  0  0  0  0  0  0  0  0  0  0
    5.5962   -2.2695   -0.6173 C   0  0  0  0  0  0  0  0  0  0  0  0
    4.2073   -2.6879   -0.1520 C   0  0  0  0  0  0  0  0  0  0  0  0
    1.4731    0.6032    0.0656 C   0  0  0  0  0  0  0  0  0  0  0  0
    1.8858   -1.7489   -0.0788 C   0  0  0  0  0  0  0  0  0  0  0  0
    0.9814   -0.6928    0.0005 C   0  0  0  0  0  0  0  0  0  0  0  0
   -0.4565   -0.9118    0.0136 C   0  0  0  0  0  0  0  0  0  0  0  0
   -1.3101    0.1192    0.0969 C   0  0  0  0  0  0  0  0  0  0  0  0
   -0.8122    1.5171    0.1804 C   0  0  0  0  0  0  0  0  0  0  0  0
   -2.7181   -0.1336    0.1004 C   0  0  0  0  0  0  0  0  0  0  0  0
   -4.8245    0.3894   -0.3284 C   0  0  0  0  0  0  0  0  0  0  0  0
   -4.7185   -0.8582    0.2802 C   0  0  0  0  0  0  0  0  0  0  0  0
   -6.0420    0.9580   -0.7042 C   0  0  0  0  0  0  0  0  0  0  0  0
   -5.8863   -1.5964    0.5367 C   0  0  0  0  0  0  0  0  0  0  0  0
   -7.1941    0.2096   -0.4412 C   0  0  0  0  0  0  0  0  0  0  0  0
   -7.1198   -1.0452    0.1680 C   0  0  0  0  0  0  0  0  0  0  0  0
    6.6748    1.5060    0.0022 H   0  0  0  0  0  0  0  0  0  0  0  0
    5.6393    1.5327    1.4327 H   0  0  0  0  0  0  0  0  0  0  0  0
    6.1482   -1.3292    1.2532 H   0  0  0  0  0  0  0  0  0  0  0  0
    7.0742   -0.7883   -0.1500 H   0  0  0  0  0  0  0  0  0  0  0  0
    2.7068    2.9672   -0.4736 H   0  0  0  0  0  0  0  0  0  0  0  0
    3.2505    2.6428    1.1835 H   0  0  0  0  0  0  0  0  0  0  0  0
    4.8228    2.3153   -1.4208 H   0  0  0  0  0  0  0  0  0  0  0  0
    5.1524    3.4477   -0.1059 H   0  0  0  0  0  0  0  0  0  0  0  0
    6.2955   -3.1054   -0.5050 H   0  0  0  0  0  0  0  0  0  0  0  0
    5.5680   -2.0091   -1.6835 H   0  0  0  0  0  0  0  0  0  0  0  0
    4.2676   -3.1381    0.8465 H   0  0  0  0  0  0  0  0  0  0  0  0
    3.8151   -3.4460   -0.8401 H   0  0  0  0  0  0  0  0  0  0  0  0
    1.5237   -2.7740   -0.1329 H   0  0  0  0  0  0  0  0  0  0  0  0
   -0.8059   -1.9385   -0.0512 H   0  0  0  0  0  0  0  0  0  0  0  0
   -3.2433    1.7090   -0.8413 H   0  0  0  0  0  0  0  0  0  0  0  0
   -6.0970    1.9320   -1.1769 H   0  0  0  0  0  0  0  0  0  0  0  0
   -5.8392   -2.5721    1.0096 H   0  0  0  0  0  0  0  0  0  0  0  0
   -8.1654    0.6129   -0.7167 H   0  0  0  0  0  0  0  0  0  0  0  0
   -8.0328   -1.6032    0.3594 H   0  0  0  0  0  0  0  0  0  0  0  0
  1 15  1  0  0  0  0
  1 20  1  0  0  0  0
  2 20  2  0  0  0  0
  3  6  1  0  0  0  0
  3  8  1  0  0  0  0
  3  9  1  0  0  0  0
  4 21  1  0  0  0  0
  4 22  1  0  0  0  0
  4 42  1  0  0  0  0
  5 21  2  0  0  0  0
  5 23  1  0  0  0  0
  6  7  1  0  0  0  0
  6 10  2  0  0  0  0
  7 11  1  0  0  0  0
  7 15  2  0  0  0  0
  8 12  1  0  0  0  0
  8 28  1  0  0  0  0
  8 29  1  0  0  0  0
  9 13  1  0  0  0  0
  9 30  1  0  0  0  0
  9 31  1  0  0  0  0
 10 14  1  0  0  0  0
 10 16  1  0  0  0  0
 11 12  1  0  0  0  0
 11 32  1  0  0  0  0
 11 33  1  0  0  0  0
 12 34  1  0  0  0  0
 12 35  1  0  0  0  0
 13 14  1  0  0  0  0
 13 36  1  0  0  0  0
 13 37  1  0  0  0  0
 14 38  1  0  0  0  0
 14 39  1  0  0  0  0
 15 17  1  0  0  0  0
 16 17  2  0  0  0  0
 16 40  1  0  0  0  0
 17 18  1  0  0  0  0
 18 19  2  0  0  0  0
 18 41  1  0  0  0  0
 19 20  1  0  0  0  0
 19 21  1  0  0  0  0
 22 23  1  0  0  0  0
 22 24  2  0  0  0  0
 23 25  2  0  0  0  0
 24 26  1  0  0  0  0
 24 43  1  0  0  0  0
 25 27  1  0  0  0  0
 25 44  1  0  0  0  0
 26 27  2  0  0  0  0
 26 45  1  0  0  0  0
 27 46  1  0  0  0  0
M  END
> <PUBCHEM_COMPOUND_CID>
1370828

> <PUBCHEM_CONFORMER_RMSD>
0.6

> <PUBCHEM_CONFORMER_DIVERSEORDER>
1
2

> <PUBCHEM_MMFF94_PARTIAL_CHARGES>
32
1 -0.23
10 -0.14
11 0.14
14 0.14
15 0.08
16 -0.15
17 0.03
18 -0.18
19 0.06
2 -0.57
20 0.71
21 0.14
22 -0.15
23 0.23
24 -0.15
25 -0.15
26 -0.15
27 -0.15
3 -0.84
4 0.03
40 0.15
41 0.15
42 0.27
43 0.15
44 0.15
45 0.15
46 0.15
5 -0.57
6 0.1
7 -0.14
8 0.37
9 0.37

> <PUBCHEM_EFFECTIVE_ROTOR_COUNT>
2.2

> <PUBCHEM_PHARMACOPHORE_FEATURES>
10
1 2 acceptor
1 3 cation
1 4 donor
3 4 5 21 cation
5 4 5 21 22 23 rings
6 1 15 17 18 19 20 rings
6 22 23 24 25 26 27 rings
6 3 6 7 8 11 12 rings
6 3 6 9 10 13 14 rings
6 6 7 10 15 16 17 rings

> <PUBCHEM_HEAVY_ATOM_COUNT>
27

> <PUBCHEM_ATOM_DEF_STEREO_COUNT>
0

> <PUBCHEM_ATOM_UDEF_STEREO_COUNT>
0

> <PUBCHEM_BOND_DEF_STEREO_COUNT>
0

> <PUBCHEM_BOND_UDEF_STEREO_COUNT>
0

> <PUBCHEM_ISOTOPIC_ATOM_COUNT>
0

> <PUBCHEM_COMPONENT_COUNT>
1

> <PUBCHEM_CACTVS_TAUTO_COUNT>
1

> <PUBCHEM_CONFORMER_ID>
0014EACC00000001

> <PUBCHEM_MMFF94_ENERGY>
76.9773

> <PUBCHEM_FEATURE_SELFOVERLAP>
50.952

> <PUBCHEM_SHAPE_FINGERPRINT>
10 15 18336537318341063168
10050765 1 18339080359354651472
10411042 1 18123189001501059438
10673678 19 17898866892088299916
10835480 77 18408035213462838781
11578080 2 13407945694473691092
117089 54 17697892375774865406
11719270 70 18341608218096315522
11963148 33 18265046006418773322
12107183 9 17766287474424196497
12166972 35 18040157322547963653
12236239 1 17846500326984192515
12516196 113 18272931631082587961
12616971 3 17989478632594782783
12730499 353 18339928211794617192
12788726 201 17346326981355711425
12838862 33 18269258206153898832
13402501 40 18408323289640609955
13533116 47 18272369780635578120
13685833 64 18409171013253233987
13782708 43 17895189987291068939
14170010 4 18412542115935318816
14341114 176 18410296912521500151
14461889 52 18262516025846447978
14933364 13 18335421270772426069
15183329 4 18335136463048890865
15196674 1 18410857646393310929
15510794 2 18187085084129611235
15927050 60 17623848333233270116
17492 89 18198062469938451694
17844677 252 18411144601816869541
19427546 62 18263364862303850738
20028762 73 18272651208305137726
20157964 124 18411701002308972914
21033650 10 16733263426992760277
21130935 74 18342460357225580891
21236236 1 18271526382524786097
21267235 1 18342462500540517614
21279426 13 18335979771055560261
21792934 111 18342446020059997721
221357 26 18411138000789687292
22149856 69 18341063977431243451
23081809 10 17775568637448683419
23522609 53 17844273850367069017
23559900 14 18408318904362754993
239999 70 18410857638236341214
24771750 20 17538013841267264677
255183 451 17985556555214802022
27425 322 16443915015282691872
29717793 49 18059859437024802358
3004659 81 18187081745568014778
335352 9 18411140239026934950
350125 39 18411138018001341388
3633792 109 18410569545041730773
4073 2 18041001799091569163
4340502 62 17458621237597825402
46194498 28 17894910750256038268
465052 167 18272935998969655542
5104073 3 18200027335787097640
5283173 99 18187921730093352149
59755656 215 18261111842129019002

> <PUBCHEM_SHAPE_MULTIPOLES>
528.97
18.53
2.56
0.69
18.55
0.22
0.02
-3.82
1.08
-3.61
0.06
0.18
-0.03
0.93

> <PUBCHEM_SHAPE_SELFOVERLAP>
1206.248

> <PUBCHEM_SHAPE_VOLUME>
274.1

> <PUBCHEM_COORDINATE_TYPE>
2
5
10

$$$$
