3241281
  -OEChem-09082001283D

 53 55  0     0  0  0  0  0  0999 V2000
   -3.7762   -1.5466    1.0083 S   0  0  0  0  0  0  0  0  0  0  0  0
    4.0388    1.0088   -0.3383 O   0  0  0  0  0  0  0  0  0  0  0  0
    5.1318   -0.8911    0.3092 O   0  0  0  0  0  0  0  0  0  0  0  0
   -2.2441   -2.7475   -1.4168 O   0  0  0  0  0  0  0  0  0  0  0  0
   -0.0937    1.1121    3.0413 O   0  0  0  0  0  0  0  0  0  0  0  0
    2.8265   -0.9187    0.0121 N   0  0  0  0  0  0  0  0  0  0  0  0
   -0.3833   -2.6299   -0.0290 N   0  0  0  0  0  0  0  0  0  0  0  0
   -0.9743    2.0420    1.0938 N   0  0  0  0  0  0  0  0  0  0  0  0
    0.6146   -2.4668   -1.0608 C   0  0  0  0  0  0  0  0  0  0  0  0
    0.8155   -0.9881   -1.4163 C   0  0  0  0  0  0  0  0  0  0  0  0
    1.9408   -3.1189   -0.6527 C   0  0  0  0  0  0  0  0  0  0  0  0
    1.5830   -0.2244   -0.3361 C   0  0  0  0  0  0  0  0  0  0  0  0
    2.6730   -2.3143    0.4202 C   0  0  0  0  0  0  0  0  0  0  0  0
    4.0862   -0.3130    0.0179 C   0  0  0  0  0  0  0  0  0  0  0  0
   -1.7368   -2.7573   -0.2964 C   0  0  0  0  0  0  0  0  0  0  0  0
   -2.5740   -2.8970    0.9533 C   0  0  0  0  0  0  0  0  0  0  0  0
   -2.7083   -0.1975    1.0223 C   0  0  0  0  0  0  0  0  0  0  0  0
   -2.7684    0.8083   -0.0590 C   0  0  0  0  0  0  0  0  0  0  0  0
    5.2913    1.7034   -0.3566 C   0  0  0  0  0  0  0  0  0  0  0  0
   -1.9032    1.9237    0.0065 C   0  0  0  0  0  0  0  0  0  0  0  0
   -1.8165   -0.0668    2.0115 C   0  0  0  0  0  0  0  0  0  0  0  0
   -0.8819    1.0790    2.0955 C   0  0  0  0  0  0  0  0  0  0  0  0
   -3.6392    0.7035   -1.1627 C   0  0  0  0  0  0  0  0  0  0  0  0
   -1.9567    2.9002   -1.0081 C   0  0  0  0  0  0  0  0  0  0  0  0
    5.0522    3.1403   -0.7687 C   0  0  0  0  0  0  0  0  0  0  0  0
   -0.0837    3.1989    1.1503 C   0  0  0  0  0  0  0  0  0  0  0  0
   -3.6756    1.6787   -2.1602 C   0  0  0  0  0  0  0  0  0  0  0  0
   -2.8377    2.7790   -2.0806 C   0  0  0  0  0  0  0  0  0  0  0  0
    0.2408   -2.9827   -1.9541 H   0  0  0  0  0  0  0  0  0  0  0  0
    1.3870   -0.9313   -2.3519 H   0  0  0  0  0  0  0  0  0  0  0  0
   -0.1470   -0.4973   -1.5998 H   0  0  0  0  0  0  0  0  0  0  0  0
    1.7741   -4.1421   -0.2960 H   0  0  0  0  0  0  0  0  0  0  0  0
    2.5843   -3.1867   -1.5395 H   0  0  0  0  0  0  0  0  0  0  0  0
    0.9940   -0.1653    0.5818 H   0  0  0  0  0  0  0  0  0  0  0  0
    1.7725    0.7982   -0.6728 H   0  0  0  0  0  0  0  0  0  0  0  0
    3.6500   -2.7680    0.6157 H   0  0  0  0  0  0  0  0  0  0  0  0
    2.1195   -2.3209    1.3660 H   0  0  0  0  0  0  0  0  0  0  0  0
   -0.0775   -2.5864    0.9383 H   0  0  0  0  0  0  0  0  0  0  0  0
   -3.1120   -3.8485    0.8919 H   0  0  0  0  0  0  0  0  0  0  0  0
   -1.9685   -2.9262    1.8633 H   0  0  0  0  0  0  0  0  0  0  0  0
    5.9656    1.2204   -1.0724 H   0  0  0  0  0  0  0  0  0  0  0  0
    5.7387    1.6747    0.6430 H   0  0  0  0  0  0  0  0  0  0  0  0
   -1.7450   -0.7823    2.8262 H   0  0  0  0  0  0  0  0  0  0  0  0
   -4.3188   -0.1368   -1.2779 H   0  0  0  0  0  0  0  0  0  0  0  0
   -1.3130    3.7752   -0.9953 H   0  0  0  0  0  0  0  0  0  0  0  0
    4.3633    3.6309   -0.0730 H   0  0  0  0  0  0  0  0  0  0  0  0
    4.5878    3.1847   -1.7593 H   0  0  0  0  0  0  0  0  0  0  0  0
    5.9903    3.7019   -0.7925 H   0  0  0  0  0  0  0  0  0  0  0  0
   -0.6780    4.1160    1.2087 H   0  0  0  0  0  0  0  0  0  0  0  0
    0.5596    3.2077    0.2648 H   0  0  0  0  0  0  0  0  0  0  0  0
    0.5627    3.1626    2.0321 H   0  0  0  0  0  0  0  0  0  0  0  0
   -4.3605    1.5742   -2.9966 H   0  0  0  0  0  0  0  0  0  0  0  0
   -2.8622    3.5412   -2.8537 H   0  0  0  0  0  0  0  0  0  0  0  0
  1 16  1  0  0  0  0
  1 17  1  0  0  0  0
  2 14  1  0  0  0  0
  2 19  1  0  0  0  0
  3 14  2  0  0  0  0
  4 15  2  0  0  0  0
  5 22  2  0  0  0  0
  6 12  1  0  0  0  0
  6 13  1  0  0  0  0
  6 14  1  0  0  0  0
  7  9  1  0  0  0  0
  7 15  1  0  0  0  0
  7 38  1  0  0  0  0
  8 20  1  0  0  0  0
  8 22  1  0  0  0  0
  8 26  1  0  0  0  0
  9 10  1  0  0  0  0
  9 11  1  0  0  0  0
  9 29  1  0  0  0  0
 10 12  1  0  0  0  0
 10 30  1  0  0  0  0
 10 31  1  0  0  0  0
 11 13  1  0  0  0  0
 11 32  1  0  0  0  0
 11 33  1  0  0  0  0
 12 34  1  0  0  0  0
 12 35  1  0  0  0  0
 13 36  1  0  0  0  0
 13 37  1  0  0  0  0
 15 16  1  0  0  0  0
 16 39  1  0  0  0  0
 16 40  1  0  0  0  0
 17 18  1  0  0  0  0
 17 21  2  0  0  0  0
 18 20  1  0  0  0  0
 18 23  2  0  0  0  0
 19 25  1  0  0  0  0
 19 41  1  0  0  0  0
 19 42  1  0  0  0  0
 20 24  2  0  0  0  0
 21 22  1  0  0  0  0
 21 43  1  0  0  0  0
 23 27  1  0  0  0  0
 23 44  1  0  0  0  0
 24 28  1  0  0  0  0
 24 45  1  0  0  0  0
 25 46  1  0  0  0  0
 25 47  1  0  0  0  0
 25 48  1  0  0  0  0
 26 49  1  0  0  0  0
 26 50  1  0  0  0  0
 26 51  1  0  0  0  0
 27 28  2  0  0  0  0
 27 52  1  0  0  0  0
 28 53  1  0  0  0  0
M  END
> <PUBCHEM_COMPOUND_CID>
3241281

> <PUBCHEM_CONFORMER_RMSD>
1

> <PUBCHEM_CONFORMER_DIVERSEORDER>
1
303
33
269
253
153
95
256
294
220
84
111
225
197
258
268
267
216
158
126
200
196
170
100
159
285
185
154
233
68
260
160
169
299
21
129
27
276
17
192
58
133
209
235
109
232
164
165
241
75
85
173
14
207
193
35
297
116
231
272
41
266
288
210
110
194
283
259
46
180
118
148
203
202
88
121
94
142
286
114
290
281
143
107
181
146
277
293
161
40
155
178
4
150
3
270
20
244
26
83
273
24
45
120
262
168
125
102
119
152
291
56
264
295
214
163
271
74
279
208
255
106
176
300
82
280
243
67
302
23
211
103
238
43
245
30
71
298
117
123
96
284
191
90
38
190
182
261
140
301
59
151
282
254
15
304
25
2
275
49
13
240
29
105
257
296
80
89
11
229
289
124
251
7
141
57
5
149
135
34
263
127
51
218
226
206
227
250
36
147
252
69
201
98
28
50
22
136
97
37
10
52
16
224
174
156
223
221
175
76
32
184
213
6
87
265
183
287
115
292
274
145
64
42
166
188
167
65
54
137
138
19
139
113
77
8
91
215
112
195
61
39
73
217
86
131
187
104
101
78
237
230
179
130
60
162
278
48
66
242
236
128
205
108
189
144
177
63
239
198
132
122
9
44
247
157
99
55
18
228
222
72
47
199
79
92
81
93
249
31
172
134
212
234
204
171
53
248
62
12
219
186
70
246

> <PUBCHEM_MMFF94_PARTIAL_CHARGES>
31
1 -0.33
12 0.3
13 0.3
14 0.78
15 0.57
16 0.29
17 0.07
18 0.03
19 0.28
2 -0.43
20 0.12
21 -0.14
22 0.62
23 -0.15
24 -0.15
26 0.3
27 -0.15
28 -0.15
3 -0.57
38 0.37
4 -0.57
43 0.15
44 0.15
45 0.15
5 -0.57
52 0.15
53 0.15
6 -0.66
7 -0.73
8 -0.48
9 0.3

> <PUBCHEM_EFFECTIVE_ROTOR_COUNT>
9.2

> <PUBCHEM_PHARMACOPHORE_FEATURES>
7
1 3 acceptor
1 4 acceptor
1 5 acceptor
1 7 donor
6 18 20 23 24 27 28 rings
6 6 9 10 11 12 13 rings
6 8 17 18 20 21 22 rings

> <PUBCHEM_HEAVY_ATOM_COUNT>
28

> <PUBCHEM_ATOM_DEF_STEREO_COUNT>
0

> <PUBCHEM_ATOM_UDEF_STEREO_COUNT>
0

> <PUBCHEM_BOND_DEF_STEREO_COUNT>
0

> <PUBCHEM_BOND_UDEF_STEREO_COUNT>
0

> <PUBCHEM_ISOTOPIC_ATOM_COUNT>
0

> <PUBCHEM_COMPONENT_COUNT>
1

> <PUBCHEM_CACTVS_TAUTO_COUNT>
2

> <PUBCHEM_CONFORMER_ID>
0031754100000001

> <PUBCHEM_MMFF94_ENERGY>
59.4959

> <PUBCHEM_FEATURE_SELFOVERLAP>
35.545

> <PUBCHEM_SHAPE_FINGERPRINT>
10670039 82 18193573370558042388
11370993 70 18045773490714348511
11582403 64 17097760284300299869
11961588 58 17823114814452535029
12156800 1 17831814184463278571
13583140 156 17895764984959883370
13627167 48 17974029511590259972
13911987 19 18343304794581574876
13994607 96 18273495701632077342
14251764 38 18191019010971577052
14468879 13 18113900420655848017
14840074 17 18046650041852369028
15575132 122 18116440421818795076
17492 54 17986649546759598751
192875 21 17764012576250259354
20715895 44 17902220123126635637
22907989 373 18202002135621252376
23419403 2 17344043424527400315
23559900 14 18192426373371103034
238 59 17836078975203090319
460360 51 18263093115481430654
469060 322 17973181787111991010

> <PUBCHEM_SHAPE_MULTIPOLES>
541.66
8.7
4.62
2.04
12.61
0.14
-0.7
-3.55
1.88
-0.2
1.19
-1.88
-0.96
1.16

> <PUBCHEM_SHAPE_SELFOVERLAP>
1122.747

> <PUBCHEM_SHAPE_VOLUME>
310.3

> <PUBCHEM_COORDINATE_TYPE>
2
5
10

$$$$
