3242203
  -OEChem-09082001413D

 46 48  0     1  0  0  0  0  0999 V2000
   -3.6265    0.3641   -0.5168 O   0  0  0  0  0  0  0  0  0  0  0  0
    4.5831   -0.2366    0.2390 O   0  0  0  0  0  0  0  0  0  0  0  0
    3.5748    0.2973   -1.7657 O   0  0  0  0  0  0  0  0  0  0  0  0
   -0.2092   -0.0133    0.2261 N   0  0  1  0  0  0  0  0  0  0  0  0
   -1.3312    0.8154   -0.0549 N   0  0  0  0  0  0  0  0  0  0  0  0
   -0.0445   -2.4845    0.4573 N   0  0  0  0  0  0  0  0  0  0  0  0
   -0.7282   -1.3430    0.2467 C   0  0  0  0  0  0  0  0  0  0  0  0
   -2.0824   -1.3383   -0.0498 C   0  0  0  0  0  0  0  0  0  0  0  0
    0.9840    0.1069   -0.6026 C   0  0  0  0  0  0  0  0  0  0  0  0
   -2.4774    0.0486   -0.2666 C   0  0  0  0  0  0  0  0  0  0  0  0
   -2.8190   -2.5009   -0.1224 C   0  0  0  0  0  0  0  0  0  0  0  0
   -1.2636    2.2242    0.1067 C   0  0  0  0  0  0  0  0  0  0  0  0
    2.2407   -0.1493    0.2218 C   0  0  0  0  0  0  0  0  0  0  0  0
   -2.1375   -3.6890    0.1095 C   0  0  0  0  0  0  0  0  0  0  0  0
   -0.7719   -3.6293    0.3891 C   0  0  0  0  0  0  0  0  0  0  0  0
   -4.2717   -2.5137   -0.4380 C   0  0  0  0  0  0  0  0  0  0  0  0
   -2.2021    3.0523   -0.5188 C   0  0  0  0  0  0  0  0  0  0  0  0
   -0.2576    2.7975    0.8921 C   0  0  0  0  0  0  0  0  0  0  0  0
    3.5159    0.0005   -0.5805 C   0  0  0  0  0  0  0  0  0  0  0  0
   -0.0278   -4.9010    0.6322 C   0  0  0  0  0  0  0  0  0  0  0  0
   -2.1356    4.4365   -0.3606 C   0  0  0  0  0  0  0  0  0  0  0  0
   -0.1910    4.1818    1.0502 C   0  0  0  0  0  0  0  0  0  0  0  0
   -1.1300    5.0014    0.4239 C   0  0  0  0  0  0  0  0  0  0  0  0
    5.8704   -0.1186   -0.3754 C   0  0  0  0  0  0  0  0  0  0  0  0
    6.9383   -0.4093    0.6574 C   0  0  0  0  0  0  0  0  0  0  0  0
    0.9430   -0.5643   -1.4718 H   0  0  0  0  0  0  0  0  0  0  0  0
    1.0541    1.1168   -1.0264 H   0  0  0  0  0  0  0  0  0  0  0  0
    2.2841    0.5583    1.0579 H   0  0  0  0  0  0  0  0  0  0  0  0
    2.2296   -1.1636    0.6345 H   0  0  0  0  0  0  0  0  0  0  0  0
   -2.6500   -4.6457    0.0698 H   0  0  0  0  0  0  0  0  0  0  0  0
   -4.8325   -1.9430    0.3093 H   0  0  0  0  0  0  0  0  0  0  0  0
   -4.4528   -2.0894   -1.4309 H   0  0  0  0  0  0  0  0  0  0  0  0
   -4.6766   -3.5316   -0.4400 H   0  0  0  0  0  0  0  0  0  0  0  0
   -2.9833    2.6499   -1.1564 H   0  0  0  0  0  0  0  0  0  0  0  0
    0.4768    2.1899    1.4124 H   0  0  0  0  0  0  0  0  0  0  0  0
   -0.4489   -5.4296    1.4934 H   0  0  0  0  0  0  0  0  0  0  0  0
   -0.0836   -5.5486   -0.2485 H   0  0  0  0  0  0  0  0  0  0  0  0
    1.0290   -4.7044    0.8405 H   0  0  0  0  0  0  0  0  0  0  0  0
   -2.8632    5.0754   -0.8526 H   0  0  0  0  0  0  0  0  0  0  0  0
    0.5890    4.6217    1.6648 H   0  0  0  0  0  0  0  0  0  0  0  0
   -1.0780    6.0792    0.5469 H   0  0  0  0  0  0  0  0  0  0  0  0
    5.9483   -0.8354   -1.2004 H   0  0  0  0  0  0  0  0  0  0  0  0
    5.9978    0.8982   -0.7635 H   0  0  0  0  0  0  0  0  0  0  0  0
    7.9375   -0.3278    0.2204 H   0  0  0  0  0  0  0  0  0  0  0  0
    6.8619    0.2884    1.4978 H   0  0  0  0  0  0  0  0  0  0  0  0
    6.8130   -1.4166    1.0681 H   0  0  0  0  0  0  0  0  0  0  0  0
  1 10  2  0  0  0  0
  2 19  1  0  0  0  0
  2 24  1  0  0  0  0
  3 19  2  0  0  0  0
  4  5  1  0  0  0  0
  4  7  1  0  0  0  0
  4  9  1  0  0  0  0
  5 10  1  0  0  0  0
  5 12  1  0  0  0  0
  6  7  1  0  0  0  0
  6 15  2  0  0  0  0
  7  8  2  0  0  0  0
  8 10  1  0  0  0  0
  8 11  1  0  0  0  0
  9 13  1  0  0  0  0
  9 26  1  0  0  0  0
  9 27  1  0  0  0  0
 11 14  2  0  0  0  0
 11 16  1  0  0  0  0
 12 17  2  0  0  0  0
 12 18  1  0  0  0  0
 13 19  1  0  0  0  0
 13 28  1  0  0  0  0
 13 29  1  0  0  0  0
 14 15  1  0  0  0  0
 14 30  1  0  0  0  0
 15 20  1  0  0  0  0
 16 31  1  0  0  0  0
 16 32  1  0  0  0  0
 16 33  1  0  0  0  0
 17 21  1  0  0  0  0
 17 34  1  0  0  0  0
 18 22  2  0  0  0  0
 18 35  1  0  0  0  0
 20 36  1  0  0  0  0
 20 37  1  0  0  0  0
 20 38  1  0  0  0  0
 21 23  2  0  0  0  0
 21 39  1  0  0  0  0
 22 23  1  0  0  0  0
 22 40  1  0  0  0  0
 23 41  1  0  0  0  0
 24 25  1  0  0  0  0
 24 42  1  0  0  0  0
 24 43  1  0  0  0  0
 25 44  1  0  0  0  0
 25 45  1  0  0  0  0
 25 46  1  0  0  0  0
M  END
> <PUBCHEM_COMPOUND_CID>
3242203

> <PUBCHEM_CONFORMER_RMSD>
0.8

> <PUBCHEM_CONFORMER_DIVERSEORDER>
1
9
38
37
50
47
48
21
5
40
42
7
15
23
26
14
3
10
30
12
32
6
20
49
11
39
17
33
29
22
34
46
45
18
43
16
35
51
28
2
52
13
24
4
36
44
53
25
31
41
27
19
8

> <PUBCHEM_MMFF94_PARTIAL_CHARGES>
30
1 -0.57
10 0.54
11 -0.14
12 0.12
13 0.06
14 -0.15
15 0.17
16 0.14
17 -0.15
18 -0.15
19 0.66
2 -0.43
20 0.14
21 -0.15
22 -0.15
23 -0.15
24 0.28
3 -0.57
30 0.15
34 0.15
35 0.15
39 0.15
4 -0.49
40 0.15
41 0.15
5 -0.16
6 -0.62
7 0.41
8 0.09
9 0.37

> <PUBCHEM_EFFECTIVE_ROTOR_COUNT>
6

> <PUBCHEM_PHARMACOPHORE_FEATURES>
6
1 1 acceptor
1 3 acceptor
1 6 acceptor
5 4 5 7 8 10 rings
6 12 17 18 21 22 23 rings
6 6 7 8 11 14 15 rings

> <PUBCHEM_HEAVY_ATOM_COUNT>
25

> <PUBCHEM_ATOM_DEF_STEREO_COUNT>
0

> <PUBCHEM_ATOM_UDEF_STEREO_COUNT>
0

> <PUBCHEM_BOND_DEF_STEREO_COUNT>
0

> <PUBCHEM_BOND_UDEF_STEREO_COUNT>
0

> <PUBCHEM_ISOTOPIC_ATOM_COUNT>
0

> <PUBCHEM_COMPONENT_COUNT>
1

> <PUBCHEM_CACTVS_TAUTO_COUNT>
1

> <PUBCHEM_CONFORMER_ID>
003178DB00000001

> <PUBCHEM_MMFF94_ENERGY>
79.2509

> <PUBCHEM_FEATURE_SELFOVERLAP>
30.553

> <PUBCHEM_SHAPE_FINGERPRINT>
10411042 1 18267020750729024895
10937287 8 17906737999177889920
1100329 8 18339650039885491353
11056379 131 18339374002432037324
11578080 2 16596414030247402205
11582403 64 16694363779269457840
11680986 33 17690843788769278403
12107183 9 17830163620696086554
12788726 201 18335132094693014090
13140716 1 18410862100691258409
13540713 4 17395845927524324395
138480 1 16248848015382251792
14508225 48 18197767998231993455
14790565 3 16754942261307493122
14844126 61 18408323298188080818
14955137 171 18192458426881013787
15042514 8 18336554896824735587
15927050 60 18052538768411639719
20510252 161 18269558251724905776
20600515 1 18057347138939024129
20642791 105 18334009471529654957
20775438 99 17116878945062440975
21304303 282 18193822765458940932
22182313 1 17251165607588195143
22956985 138 17256521350095692906
23366157 5 17398388019122040287
23419403 2 17560223847324934489
23557571 272 18272934895527070084
23558518 356 18191878829196580902
23559900 14 17763458817521212922
255183 313 18198925646605881081
266924 87 18339072684142559799
283562 15 18339359665293236689
3178227 256 18265071257511642963
350125 39 17690290313508307409
4409770 3 18335696109861459005
469060 322 18266480731870008225
81228 2 18128282092865923459
9981440 41 18120377549292630952

> <PUBCHEM_SHAPE_MULTIPOLES>
481.94
8.73
7.29
0.91
21.99
3.79
-0.1
-3.64
-1.04
-7.73
1.85
0.45
0.24
-0.05

> <PUBCHEM_SHAPE_SELFOVERLAP>
1030.911

> <PUBCHEM_SHAPE_VOLUME>
267.1

> <PUBCHEM_COORDINATE_TYPE>
2
5
10

$$$$
