651258
  -OEChem-09082001413D

 55 58  0     1  0  0  0  0  0999 V2000
    5.4970   -2.0888   -1.3879 Cl  0  0  0  0  0  0  0  0  0  0  0  0
    4.3258   -4.8008   -1.1363 F   0  0  0  0  0  0  0  0  0  0  0  0
    4.2678    2.5887   -1.1731 O   0  0  0  0  0  0  0  0  0  0  0  0
    1.5138    1.3834   -0.7829 O   0  0  0  0  0  0  0  0  0  0  0  0
   -0.9973   -1.8702    0.1996 O   0  0  0  0  0  0  0  0  0  0  0  0
   -5.8650    0.9204   -1.2509 O   0  0  0  0  0  0  0  0  0  0  0  0
    2.3882    2.6388    0.9685 N   0  0  0  0  0  0  0  0  0  0  0  0
    1.0045   -0.7305    0.7946 N   0  0  0  0  0  0  0  0  0  0  0  0
   -2.6701   -0.0614    1.3337 N   0  0  0  0  0  0  0  0  0  0  0  0
   -3.4050    0.4239    0.3231 N   0  0  0  0  0  0  0  0  0  0  0  0
   -3.3342   -0.7666    2.2600 N   0  0  0  0  0  0  0  0  0  0  0  0
   -4.5954   -0.7555    1.8462 N   0  0  0  0  0  0  0  0  0  0  0  0
    4.1321    3.7448   -0.3295 C   0  0  2  0  0  0  0  0  0  0  0  0
    5.1961    3.6109    0.7461 C   0  0  0  0  0  0  0  0  0  0  0  0
    6.3069    2.9301   -0.0132 C   0  0  0  0  0  0  0  0  0  0  0  0
    5.5386    1.9777   -0.9048 C   0  0  0  0  0  0  0  0  0  0  0  0
    2.7212    3.8178    0.2209 C   0  0  0  0  0  0  0  0  0  0  0  0
    1.8066    1.5060    0.4038 C   0  0  0  0  0  0  0  0  0  0  0  0
    1.6214    0.4008    1.4216 C   0  0  0  0  0  0  0  0  0  0  0  0
    1.8782   -1.7938    0.2882 C   0  0  0  0  0  0  0  0  0  0  0  0
   -0.4150   -0.9181    0.7256 C   0  0  0  0  0  0  0  0  0  0  0  0
   -1.2260    0.1659    1.4215 C   0  0  0  0  0  0  0  0  0  0  0  0
    3.1265   -1.4756   -0.2466 C   0  0  0  0  0  0  0  0  0  0  0  0
    1.4605   -3.1236    0.3410 C   0  0  0  0  0  0  0  0  0  0  0  0
    3.9573   -2.4872   -0.7284 C   0  0  0  0  0  0  0  0  0  0  0  0
    2.2911   -4.1351   -0.1412 C   0  0  0  0  0  0  0  0  0  0  0  0
    3.5396   -3.8171   -0.6758 C   0  0  0  0  0  0  0  0  0  0  0  0
   -4.6042   -0.0369    0.6876 C   0  0  0  0  0  0  0  0  0  0  0  0
   -5.8264    0.2093   -0.0934 C   0  0  0  0  0  0  0  0  0  0  0  0
   -7.0825   -0.2428    0.2380 C   0  0  0  0  0  0  0  0  0  0  0  0
   -7.1598    0.9224   -1.6628 C   0  0  0  0  0  0  0  0  0  0  0  0
   -7.9484    0.2204   -0.7811 C   0  0  0  0  0  0  0  0  0  0  0  0
   -7.4437    1.6425   -2.9122 C   0  0  0  0  0  0  0  0  0  0  0  0
    4.3332    4.6259   -0.9509 H   0  0  0  0  0  0  0  0  0  0  0  0
    5.4914    4.5755    1.1687 H   0  0  0  0  0  0  0  0  0  0  0  0
    4.8802    2.9631    1.5712 H   0  0  0  0  0  0  0  0  0  0  0  0
    7.0333    2.4233    0.6274 H   0  0  0  0  0  0  0  0  0  0  0  0
    6.8435    3.6647   -0.6253 H   0  0  0  0  0  0  0  0  0  0  0  0
    5.3523    1.0299   -0.3916 H   0  0  0  0  0  0  0  0  0  0  0  0
    6.0556    1.7710   -1.8459 H   0  0  0  0  0  0  0  0  0  0  0  0
    2.0053    3.9158   -0.6027 H   0  0  0  0  0  0  0  0  0  0  0  0
    2.6056    4.6797    0.8857 H   0  0  0  0  0  0  0  0  0  0  0  0
    2.5919    2.6383    1.9638 H   0  0  0  0  0  0  0  0  0  0  0  0
    2.5925    0.1279    1.8516 H   0  0  0  0  0  0  0  0  0  0  0  0
    1.0189    0.7847    2.2481 H   0  0  0  0  0  0  0  0  0  0  0  0
   -1.0318    1.1437    0.9711 H   0  0  0  0  0  0  0  0  0  0  0  0
   -0.9909    0.1888    2.4901 H   0  0  0  0  0  0  0  0  0  0  0  0
    3.4704   -0.4491   -0.3087 H   0  0  0  0  0  0  0  0  0  0  0  0
    0.5324   -3.4330    0.8091 H   0  0  0  0  0  0  0  0  0  0  0  0
    1.9730   -5.1722   -0.0870 H   0  0  0  0  0  0  0  0  0  0  0  0
   -7.3543   -0.8330    1.1023 H   0  0  0  0  0  0  0  0  0  0  0  0
   -9.0143    0.0607   -0.8605 H   0  0  0  0  0  0  0  0  0  0  0  0
   -6.8765    1.2105   -3.7424 H   0  0  0  0  0  0  0  0  0  0  0  0
   -8.5073    1.5910   -3.1651 H   0  0  0  0  0  0  0  0  0  0  0  0
   -7.1682    2.6975   -2.8188 H   0  0  0  0  0  0  0  0  0  0  0  0
  1 25  1  0  0  0  0
  2 27  1  0  0  0  0
  3 13  1  0  0  0  0
  3 16  1  0  0  0  0
  4 18  2  0  0  0  0
  5 21  2  0  0  0  0
  6 29  1  0  0  0  0
  6 31  1  0  0  0  0
  7 17  1  0  0  0  0
  7 18  1  0  0  0  0
  7 43  1  0  0  0  0
  8 19  1  0  0  0  0
  8 20  1  0  0  0  0
  8 21  1  0  0  0  0
  9 10  1  0  0  0  0
  9 11  1  0  0  0  0
  9 22  1  0  0  0  0
 10 28  2  0  0  0  0
 11 12  2  0  0  0  0
 12 28  1  0  0  0  0
 13 14  1  0  0  0  0
 13 17  1  0  0  0  0
 13 34  1  0  0  0  0
 14 15  1  0  0  0  0
 14 35  1  0  0  0  0
 14 36  1  0  0  0  0
 15 16  1  0  0  0  0
 15 37  1  0  0  0  0
 15 38  1  0  0  0  0
 16 39  1  0  0  0  0
 16 40  1  0  0  0  0
 17 41  1  0  0  0  0
 17 42  1  0  0  0  0
 18 19  1  0  0  0  0
 19 44  1  0  0  0  0
 19 45  1  0  0  0  0
 20 23  2  0  0  0  0
 20 24  1  0  0  0  0
 21 22  1  0  0  0  0
 22 46  1  0  0  0  0
 22 47  1  0  0  0  0
 23 25  1  0  0  0  0
 23 48  1  0  0  0  0
 24 26  2  0  0  0  0
 24 49  1  0  0  0  0
 25 27  2  0  0  0  0
 26 27  1  0  0  0  0
 26 50  1  0  0  0  0
 28 29  1  0  0  0  0
 29 30  2  0  0  0  0
 30 32  1  0  0  0  0
 30 51  1  0  0  0  0
 31 32  2  0  0  0  0
 31 33  1  0  0  0  0
 32 52  1  0  0  0  0
 33 53  1  0  0  0  0
 33 54  1  0  0  0  0
 33 55  1  0  0  0  0
M  END
> <PUBCHEM_COMPOUND_CID>
651258

> <PUBCHEM_CONFORMER_RMSD>
1.4

> <PUBCHEM_CONFORMER_DIVERSEORDER>
1
156
145
147
52
41
18
104
90
109
120
94
5
9
28
122
133
87
138
10
160
26
84
112
46
149
79
49
66
105
45
106
20
78
50
23
130
51
55
74
37
125
29
40
116
62
86
56
95
97
153
83
59
107
151
64
103
119
22
127
76
19
131
154
44
31
35
17
75
33
143
73
128
132
96
12
158
69
114
139
123
27
81
38
58
136
99
6
21
144
36
155
134
53
129
137
101
24
98
47
159
100
61
85
113
68
13
115
8
118
111
63
124
4
34
25
15
141
60
135
30
14
152
70
126
157
16
3
146
54
148
117
93
48
142
80
108
71
150
102
67
140
39
77
65
43
91
2
42
82
89
32
11
92
57
72
110
121
88
7

> <PUBCHEM_MMFF94_PARTIAL_CHARGES>
37
1 -0.18
10 -0.71
11 -0.42
12 -0.23
13 0.28
16 0.28
17 0.3
18 0.57
19 0.36
2 -0.19
20 0.12
21 0.57
22 0.32
23 -0.15
24 -0.15
25 0.18
26 -0.15
27 0.19
28 0.52
29 0.14
3 -0.56
30 -0.15
31 -0.04
32 -0.15
33 0.18
4 -0.57
43 0.37
48 0.15
49 0.15
5 -0.57
50 0.15
51 0.15
52 0.15
6 -0.28
7 -0.73
8 -0.48
9 0.58

> <PUBCHEM_EFFECTIVE_ROTOR_COUNT>
11

> <PUBCHEM_PHARMACOPHORE_FEATURES>
10
1 3 acceptor
1 4 acceptor
1 5 acceptor
1 6 acceptor
1 7 donor
3 10 12 28 cation
5 3 13 14 15 16 rings
5 6 29 30 31 32 rings
5 9 10 11 12 28 rings
6 20 23 24 25 26 27 rings

> <PUBCHEM_HEAVY_ATOM_COUNT>
33

> <PUBCHEM_ATOM_DEF_STEREO_COUNT>
0

> <PUBCHEM_ATOM_UDEF_STEREO_COUNT>
1

> <PUBCHEM_BOND_DEF_STEREO_COUNT>
0

> <PUBCHEM_BOND_UDEF_STEREO_COUNT>
0

> <PUBCHEM_ISOTOPIC_ATOM_COUNT>
0

> <PUBCHEM_COMPONENT_COUNT>
1

> <PUBCHEM_CACTVS_TAUTO_COUNT>
2

> <PUBCHEM_CONFORMER_ID>
0009EFFA00000001

> <PUBCHEM_MMFF94_ENERGY>
66.7031

> <PUBCHEM_FEATURE_SELFOVERLAP>
50.749

> <PUBCHEM_SHAPE_FINGERPRINT>
11135926 11 18270693064068481961
11204353 107 18339652251114134514
11719270 70 18411696629974581616
11763715 3 16844458124135501650
12166972 35 17917142789602009595
12440610 7 17967818309874568267
12838862 33 18341896342763796084
13540713 4 18115041791652427451
13540713 5 17845388656457275713
13627175 4 16271636898129649167
14117953 113 18413396437118973404
14150023 79 18334292102037106778
15082195 135 18340199683756027113
15351334 14 18334844048869729383
15400415 2 17909560793962386024
15439362 3 18411701028047147720
15684393 108 18201143461050371703
15950262 2 15505508255066692254
16988056 13 18335137562028178228
17852330 134 18267866086820101333
19304671 126 18115852029033266757
21033648 29 17385445415181868593
21968339 14 18342734134961455449
22121540 332 17894899699009357980
23522609 53 17488204655043157841
23559900 14 17894923905993812915
24771293 8 18129666297271652234
3388396 114 18201725067667090721
38695281 34 18268719479599151650
4066623 53 18261674762339598644
4093350 32 18335697247890557845
4403749 210 17907014333226596800
44880568 143 18262225622650950821
46194498 28 18336539426658022927
60123966 16 18335127666797457229
6376802 90 18113902706301338043
6669772 16 18270409403180082062

> <PUBCHEM_SHAPE_MULTIPOLES>
620.36
19.9
5.55
1.73
40.25
1.78
-0.35
-10.18
-10.62
-15.47
-1.35
2.85
-0.27
3.49

> <PUBCHEM_SHAPE_SELFOVERLAP>
1318.112

> <PUBCHEM_SHAPE_VOLUME>
347.1

> <PUBCHEM_COORDINATE_TYPE>
2
5
10

$$$$
