1108168
  -OEChem-09082001423D

 43 45  0     0  0  0  0  0  0999 V2000
    3.2495    1.4531    0.2484 S   0  0  0  0  0  0  0  0  0  0  0  0
   -3.6406    0.9502   -0.5907 S   0  0  0  0  0  0  0  0  0  0  0  0
    2.8055   -2.9476   -0.5779 O   0  0  0  0  0  0  0  0  0  0  0  0
    3.7358    2.2141   -0.8827 O   0  0  0  0  0  0  0  0  0  0  0  0
    3.7517    1.6989    1.5835 O   0  0  0  0  0  0  0  0  0  0  0  0
   -5.0231    1.0233   -0.1559 O   0  0  0  0  0  0  0  0  0  0  0  0
   -3.3140    1.1493   -1.9896 O   0  0  0  0  0  0  0  0  0  0  0  0
    3.3890   -0.2174   -0.0998 N   0  0  0  0  0  0  0  0  0  0  0  0
   -2.6875    1.9955    0.3926 N   0  0  0  0  0  0  0  0  0  0  0  0
    2.7642   -0.6615   -1.3801 C   0  0  0  0  0  0  0  0  0  0  0  0
    3.0315   -1.1388    1.0182 C   0  0  0  0  0  0  0  0  0  0  0  0
    3.1894   -2.0963   -1.6598 C   0  0  0  0  0  0  0  0  0  0  0  0
    3.4458   -2.5533    0.6376 C   0  0  0  0  0  0  0  0  0  0  0  0
    1.4919    1.6137    0.2911 C   0  0  0  0  0  0  0  0  0  0  0  0
    0.8107    1.9213   -0.8752 C   0  0  0  0  0  0  0  0  0  0  0  0
    0.8233    1.4296    1.4901 C   0  0  0  0  0  0  0  0  0  0  0  0
   -1.2661    1.8657    0.3580 C   0  0  0  0  0  0  0  0  0  0  0  0
   -0.5780    2.0481   -0.8414 C   0  0  0  0  0  0  0  0  0  0  0  0
   -0.5654    1.5564    1.5238 C   0  0  0  0  0  0  0  0  0  0  0  0
   -3.0378   -0.6450   -0.1168 C   0  0  0  0  0  0  0  0  0  0  0  0
   -3.6437   -1.3095    0.9341 C   0  0  0  0  0  0  0  0  0  0  0  0
   -1.9724   -1.1946   -0.8067 C   0  0  0  0  0  0  0  0  0  0  0  0
   -3.1681   -2.5663    1.3078 C   0  0  0  0  0  0  0  0  0  0  0  0
   -1.4968   -2.4515   -0.4329 C   0  0  0  0  0  0  0  0  0  0  0  0
   -2.0946   -3.1374    0.6243 C   0  0  0  0  0  0  0  0  0  0  0  0
    3.0837   -0.0208   -2.2071 H   0  0  0  0  0  0  0  0  0  0  0  0
    1.6736   -0.6377   -1.2932 H   0  0  0  0  0  0  0  0  0  0  0  0
    1.9501   -1.1167    1.1857 H   0  0  0  0  0  0  0  0  0  0  0  0
    3.5491   -0.8497    1.9373 H   0  0  0  0  0  0  0  0  0  0  0  0
    2.6958   -2.4636   -2.5651 H   0  0  0  0  0  0  0  0  0  0  0  0
    4.2723   -2.1722   -1.8148 H   0  0  0  0  0  0  0  0  0  0  0  0
    4.5328   -2.6363    0.5186 H   0  0  0  0  0  0  0  0  0  0  0  0
    3.1406   -3.2562    1.4191 H   0  0  0  0  0  0  0  0  0  0  0  0
    1.3269    2.0715   -1.8184 H   0  0  0  0  0  0  0  0  0  0  0  0
    1.3490    1.1849    2.4079 H   0  0  0  0  0  0  0  0  0  0  0  0
   -1.0951    2.3171   -1.7571 H   0  0  0  0  0  0  0  0  0  0  0  0
   -1.0913    1.4093    2.4636 H   0  0  0  0  0  0  0  0  0  0  0  0
   -3.0788    2.2227    1.3161 H   0  0  0  0  0  0  0  0  0  0  0  0
   -4.4744   -0.8785    1.4841 H   0  0  0  0  0  0  0  0  0  0  0  0
   -1.4959   -0.6828   -1.6364 H   0  0  0  0  0  0  0  0  0  0  0  0
   -3.6320   -3.0995    2.1324 H   0  0  0  0  0  0  0  0  0  0  0  0
   -0.6602   -2.8955   -0.9647 H   0  0  0  0  0  0  0  0  0  0  0  0
   -1.7234   -4.1155    0.9160 H   0  0  0  0  0  0  0  0  0  0  0  0
  1  4  2  0  0  0  0
  1  5  2  0  0  0  0
  1  8  1  0  0  0  0
  1 14  1  0  0  0  0
  2  6  2  0  0  0  0
  2  7  2  0  0  0  0
  2  9  1  0  0  0  0
  2 20  1  0  0  0  0
  3 12  1  0  0  0  0
  3 13  1  0  0  0  0
  8 10  1  0  0  0  0
  8 11  1  0  0  0  0
  9 17  1  0  0  0  0
  9 38  1  0  0  0  0
 10 12  1  0  0  0  0
 10 26  1  0  0  0  0
 10 27  1  0  0  0  0
 11 13  1  0  0  0  0
 11 28  1  0  0  0  0
 11 29  1  0  0  0  0
 12 30  1  0  0  0  0
 12 31  1  0  0  0  0
 13 32  1  0  0  0  0
 13 33  1  0  0  0  0
 14 15  2  0  0  0  0
 14 16  1  0  0  0  0
 15 18  1  0  0  0  0
 15 34  1  0  0  0  0
 16 19  2  0  0  0  0
 16 35  1  0  0  0  0
 17 18  2  0  0  0  0
 17 19  1  0  0  0  0
 18 36  1  0  0  0  0
 19 37  1  0  0  0  0
 20 21  2  0  0  0  0
 20 22  1  0  0  0  0
 21 23  1  0  0  0  0
 21 39  1  0  0  0  0
 22 24  2  0  0  0  0
 22 40  1  0  0  0  0
 23 25  2  0  0  0  0
 23 41  1  0  0  0  0
 24 25  1  0  0  0  0
 24 42  1  0  0  0  0
 25 43  1  0  0  0  0
M  END
> <PUBCHEM_COMPOUND_CID>
1108168

> <PUBCHEM_CONFORMER_RMSD>
0.8

> <PUBCHEM_CONFORMER_DIVERSEORDER>
1
41
72
58
27
34
80
76
22
7
45
40
29
30
74
25
64
56
39
2
50
23
79
4
62
44
3
38
35
53
70
61
11
73
81
46
55
14
20
77
9
16
57
67
54
59
82
37
32
66
63
47
49
5
36
6
71
15
28
10
48
60
68
65
12
31
43
75
13
33
17
51
21
78
19
18
52
42
26
69
8
24

> <PUBCHEM_MMFF94_PARTIAL_CHARGES>
35
1 1.45
10 0.36
11 0.36
12 0.28
13 0.28
14 -0.01
15 -0.15
16 -0.15
17 0.2
18 -0.15
19 -0.15
2 1.45
20 -0.01
21 -0.15
22 -0.15
23 -0.15
24 -0.15
25 -0.15
3 -0.56
34 0.15
35 0.15
36 0.15
37 0.15
38 0.42
39 0.15
4 -0.65
40 0.15
41 0.15
42 0.15
43 0.15
5 -0.65
6 -0.65
7 -0.65
8 -0.85
9 -0.76

> <PUBCHEM_EFFECTIVE_ROTOR_COUNT>
6.2

> <PUBCHEM_PHARMACOPHORE_FEATURES>
9
1 3 acceptor
1 4 acceptor
1 5 acceptor
1 6 acceptor
1 7 acceptor
1 9 donor
6 14 15 16 17 18 19 rings
6 20 21 22 23 24 25 rings
6 3 8 10 11 12 13 rings

> <PUBCHEM_HEAVY_ATOM_COUNT>
25

> <PUBCHEM_ATOM_DEF_STEREO_COUNT>
0

> <PUBCHEM_ATOM_UDEF_STEREO_COUNT>
0

> <PUBCHEM_BOND_DEF_STEREO_COUNT>
0

> <PUBCHEM_BOND_UDEF_STEREO_COUNT>
0

> <PUBCHEM_ISOTOPIC_ATOM_COUNT>
0

> <PUBCHEM_COMPONENT_COUNT>
1

> <PUBCHEM_CACTVS_TAUTO_COUNT>
1

> <PUBCHEM_CONFORMER_ID>
0010E8C800000001

> <PUBCHEM_MMFF94_ENERGY>
44.9738

> <PUBCHEM_FEATURE_SELFOVERLAP>
45.71

> <PUBCHEM_SHAPE_FINGERPRINT>
10366900 7 17845926428801002848
10616163 171 18265897041260232302
10759866 29 18334300898435713652
1100329 8 16680912134845605431
12156800 1 15012652399180130654
12422481 6 18198035132903844346
12506688 2 18343023328157433712
12553582 1 18051414260100158795
12633257 1 18199476458564790546
12788726 201 17775012219534586113
13122387 1 18411985775309689010
13533116 47 18130787833090775289
14223421 5 18342460369751091194
14251757 17 18408319965119404859
14617045 38 18267597960057797239
15635459 17 18270964651640274746
17093844 170 18410005542235636208
17980427 23 16951404519778086292
20905425 154 18270126845328644710
23559900 14 18412822499880099352
4280585 95 18191871128958405662
5309563 4 17617661402905562355
6433294 58 18410858733225934090
9709674 26 18413387644007440141

> <PUBCHEM_SHAPE_MULTIPOLES>
482.88
8.35
3.88
1.54
0.67
2.07
-0.08
1.32
-0.31
-0.48
0.21
-0.31
-0.06
1.43

> <PUBCHEM_SHAPE_SELFOVERLAP>
1002.335

> <PUBCHEM_SHAPE_VOLUME>
274.2

> <PUBCHEM_COORDINATE_TYPE>
2
5
10

$$$$
